 ****** HSPICE -- F-2011.09 32-BIT (Sep  5 2011) winnt ******                   
  Copyright (C) 2011 Synopsys, Inc. All Rights Reserved.                        
  Unpublished-rights reserved under US copyright laws.
  This program is protected by law and is subject to the
  terms and conditions of the license agreement from Synopsys.
  Use of this program is your acceptance to be bound by the
  license agreement. HSPICE is the trademark of Synopsys, Inc.
  Input File: e:\ee\project\spice\1.0\opa_unity_gain.sp                         
  Command line options: -i e:\ee\project\spice\1.0\opa_unity_gain.sp -o e:\ee\project\spice\1.0\opa_unity_gain.lis
  lic:  
  lic: FLEXlm: v10.8 
  lic: USER:   shabi                HOSTNAME: Kunlin-Yuquan 
  lic: HOSTID: "581122b93f59 346f24e5c2cc 005056c00001 005056c00008 00ffe567be1a
  
  lic: Using FLEXlm license file: 
  lic: E:\EE\A3-H$pice2011.09\hspice2011_crack\hspice2011_crack\license1.dat 
  lic: Checkout 1 hspice 
  lic: License/Maintenance for hspice will expire on 31-dec-2030/2030.12 
  lic: NODE LOCKED license on hostid "581122b93f59 346f24e5c2cc 005056c00001 005
 0
  lic:   
 Init: read install configuration file: E:\EE\Hspice\meta.cfg

 **warning**  runlvl smaller than 5, reset to 5  when accurate turned on

 **warning**  runlvl smaller than 5, reset to 5  when accurate turned on
1****** HSPICE -- F-2011.09 32-BIT (Sep  5 2011) winnt ******                   
 ******  
 .title opa_unity_gain

  ******  circuit name directory
 circuit number to circuit name directory
   number circuitname                     definition         multiplier
        0 main circuit
        1 x1.                             opamp              1.00 
  **warning** (e:\ee\project\spice\1.0\opa_unity_gain.sp:20) The third value 0.00D+00 and the forth value 1.00D-08 both are smaller than the second value 1.00D-05 , so the transient statement is interpreted as: .tran tstep tstop tstart delmax.
1****** HSPICE -- F-2011.09 32-BIT (Sep  5 2011) winnt ******                   
 ******  
 .title opa_unity_gain

  ******  mos   model parameters tnom=  25.000 temp=  25.000 *****
 ***************************************************************************
 *** common model parameters  model name:   1:p08      model type:pmos   ***
 ***************************************************************************
     names  values   units     names  values   units     names  values   units
     -----  ------   -----     -----  ------   -----     -----  ------   -----

   1*** geometry parameters ***
       ld=  14.00n meters      lmlt=   1.00                wd=   0.    meters 
     wmlt=   1.00                xl=   0.    meters        xw=   0.    meters 
     lref=   0.    meters      wref=   0.    meters      lref=   0.    meters 
     wref=   0.    meters     xlref=   0.    meters     xwref=   0.    meters 
     lmin=   0.    meters      wmin=   0.    meters      lmax=   0.    meters 
     wmax=   0.    meters 

   2*** threshold voltage parameters ***
      vto=-700.00m volts        nss=   0.    1/cm**2      tpg=   1.00         
      phi= 800.00m volts      gamma= 570.00m v**0.5      bulk=  gnd           
    ngate=   0.    cm**3       nsub= 5.9e+16 1/cm**3   delvto=   0.    volts  

   3*** gate overlap capacitance parameters ***
     cgbo= 700.00p f/meter     cgdo= 220.00p f/meter     cgso= 220.00p f/meter
     meto=   0.    meters 

   4*** gate capacitance parameters ***
    capop=   2.00               cf1=   0.    volts        cf2= 100.00m volts  
      cf3=   1.00  volts        cf4=  50.00               cf5= 666.67m        
      cf6= 500.00               xqc= 500.00m              tox=  14.00n meters 
      cox=   2.47m f/m**2 

   5*** diffusion parasitic parameters ***
      acm=   0.                  is=  10.00f amps          js=   0.    a/m**2 
      jsw=   0.    amp/m        nds=   1.00               cbd=   0.    farad  
      cbs=   0.    farad         cj= 560.00u f/m**2      cjsw= 350.00p f/m    
   cjgate= 350.00p f/m           mj= 500.00m             mjsw= 350.00m        
       pb= 800.00m volts        php= 800.00m volts         tt=   0.    secs   
     hdif=   0.    meters      ldif=   0.    meters        rd=   0.    ohms   
       rs=   0.    ohms         rsh=   0.    ohms/sq       fc=   0.           
    alpha=   0.                 vcr=   0.    volts      iirat=   0.           
      rdc=   0.    ohms         rsc=   0.    ohms           n=   1.00         
     vnds=  -1.00  volts  

   6*** temperature effect parameters ***
     tlev=   0.               tlevc=   0.                  eg=   1.11  ev     
     gap1= 702.00u ev/deg      gap2=   1.11k deg          xti=   0.           
      bex=  -1.50               tcv=   0.    v/deg k      trd=   0.    /deg   
      trs=   0.    /deg         cta=   0.    /deg         ctp=   0.    /deg   

   7*** noise parameters ***
       kf=   0.                  af=   1.00              nlev=   2.00         
   gdsnoi=   1.00         

   ***  level  1  model parameters  ***

   lambda=  50.00m /v            kp=  50.00u a/v**2 
  **info** (e:\ee\project\spice\1.0\opa_unity_gain.sp:13) DC voltage reset to initial transient source value              in source        0:vvip                new dc= -0.2000D+01
  
      
 **info** set option symb=1 internally to help for convergence.
 *****************************************************************
 ******  option summary
 ******
 runlvl  = 5         bypass  = 2         
  Opening plot unit= 79
 file=e:\ee\project\spice\1.0\opa_unity_gain.pa0                               





 ****     small-signal transfer characteristics

        vvip       input resistance at vvip      output resistance at v(3)        v(3)/vvip     

      -2.5000            1.000e+20                       2.3807                   -59.1297u
      -2.4000            1.000e+20                       2.3812                   -58.5001u
      -2.3000            1.000e+20                       2.3817                   -57.2392u
      -2.2000            1.000e+20                       2.3822                   -48.0579u
      -2.1000            1.000e+20                       2.3826                   -39.1132u
      -2.0000            1.000e+20                       2.3829                   -30.3545u
      -1.9000            1.000e+20                       2.3832                   -21.7347u
      -1.8000            1.000e+20                       2.3833                   -13.2086u
      -1.7000            1.000e+20                       2.3834                    -4.7327u
      -1.6000            1.000e+20                       2.3834                     0.     
      -1.5000            1.000e+20                       2.3834                     0.     
      -1.4000            1.000e+20                       2.3834                     0.     
      -1.3000            1.000e+20                       2.3834                     0.     
      -1.2000            1.000e+20                       2.3834                     0.     
      -1.1000            1.000e+20                       2.3834                     0.     
      -1.0000            1.000e+20                       2.3834                     0.     
    -900.0000m           1.000e+20                       2.3834                     0.     
    -800.0000m           1.000e+20                       2.3834                     0.     
    -700.0000m           1.000e+20                       2.3834                     0.     
    -600.0000m           1.000e+20                       2.3834                     0.     
    -500.0000m           1.000e+20                       2.3834                     0.     
    -400.0000m           1.000e+20                       2.3834                     0.     
    -300.0000m           1.000e+20                       2.3834                     0.     
    -200.0000m           1.000e+20                       2.3834                     0.     
    -100.0000m           1.000e+20                       2.3834                     0.     
       0.                1.000e+20                       2.3834                     0.     
     100.0000m           1.000e+20                       2.3834                     0.     
     200.0000m           1.000e+20                       2.3834                     0.     
     300.0000m           1.000e+20                       2.3834                     0.     
     400.0000m           1.000e+20                       2.3834                     0.     
     500.0000m           1.000e+20                       2.3834                     0.     
     600.0000m           1.000e+20                       2.3834                     0.     
     700.0000m           1.000e+20                       2.3834                     0.     
     800.0000m           1.000e+20                       2.3834                     0.     
     900.0000m           1.000e+20                       2.3834                     0.     
       1.0000            1.000e+20                       2.3834                     0.     
       1.1000            1.000e+20                       2.3834                     0.     
       1.2000            1.000e+20                       2.3834                     0.     
       1.3000            1.000e+20                       2.3834                     0.     
       1.4000            1.000e+20                       2.3834                     0.     
       1.5000            1.000e+20                       2.3834                     0.     
       1.6000            1.000e+20                       2.3834                     0.     
       1.7000            1.000e+20                       2.3834                     0.     
       1.8000            1.000e+20                       2.3834                     0.     
       1.9000            1.000e+20                       2.3834                     0.     
       2.0000            1.000e+20                       2.3834                     0.     
       2.1000            1.000e+20                       2.3834                     0.     
       2.2000            1.000e+20                       2.3834                     0.     
       2.3000            1.000e+20                       2.3834                     0.     
       2.4000            1.000e+20                       2.3834                     0.     
       2.5000            1.000e+20                       2.3834                     0.     
  
 ******  
 .title opa_unity_gain

  ******  dc transfer curves tnom=  25.000 temp=  27.000 *****
x

        volt    voltage      i drn      
                     3          x1.m5   
   -2.50000      -1.7914       3.6988m  
   -2.40000      -1.7914       3.6987m  
   -2.30000      -1.7915       3.6987m  
   -2.20000      -1.7915       3.6987m  
   -2.10000      -1.7915       3.6987m  
   -2.00000      -1.7915       3.6987m  
   -1.90000      -1.7915       3.6986m  
   -1.80000      -1.7915       3.6986m  
   -1.70000      -1.7915       3.6986m  
   -1.60000      -1.7915       3.6986m  
   -1.50000      -1.7915       3.6986m  
   -1.40000      -1.7915       3.6986m  
   -1.30000      -1.7915       3.6986m  
   -1.20000      -1.7915       3.6986m  
   -1.10000      -1.7915       3.6986m  
   -1.00000      -1.7915       3.6986m  
 -900.00000m     -1.7915       3.6986m  
 -800.00000m     -1.7915       3.6986m  
 -700.00000m     -1.7915       3.6986m  
 -600.00000m     -1.7915       3.6986m  
 -500.00000m     -1.7915       3.6986m  
 -400.00000m     -1.7915       3.6986m  
 -300.00000m     -1.7915       3.6986m  
 -200.00000m     -1.7915       3.6986m  
 -100.00000m     -1.7915       3.6986m  
    0.           -1.7915       3.6986m  
  100.00000m     -1.7915       3.6986m  
  200.00000m     -1.7915       3.6986m  
  300.00000m     -1.7915       3.6986m  
  400.00000m     -1.7915       3.6986m  
  500.00000m     -1.7915       3.6986m  
  600.00000m     -1.7915       3.6986m  
  700.00000m     -1.7915       3.6986m  
  800.00000m     -1.7915       3.6986m  
  900.00000m     -1.7915       3.6986m  
    1.00000      -1.7915       3.6986m  
    1.10000      -1.7915       3.6986m  
    1.20000      -1.7915       3.6986m  
    1.30000      -1.7915       3.6986m  
    1.40000      -1.7915       3.6986m  
    1.50000      -1.7915       3.6986m  
    1.60000      -1.7915       3.6986m  
    1.70000      -1.7915       3.6986m  
    1.80000      -1.7915       3.6986m  
    1.90000      -1.7915       3.6986m  
    2.00000      -1.7915       3.6986m  
    2.10000      -1.7915       3.6986m  
    2.20000      -1.7915       3.6986m  
    2.30000      -1.7915       3.6986m  
    2.40000      -1.7915       3.6986m  
    2.50000      -1.7915       3.6986m  
y
1****** HSPICE -- F-2011.09 32-BIT (Sep  5 2011) winnt ******                   
 ******  
 .title opa_unity_gain

  ******  operating point information tnom=  25.000 temp=  27.000 *****
 ***** operating point status is voltage   simulation time is     0.     
    node    =voltage      node    =voltage      node    =voltage

 +0:1       =  -2.0000  0:3       =  -1.7915  0:4       =   2.5000 
 +0:5       =  -2.5000  1:3       =  -1.8216  1:4       =  -1.1587 
 +1:5       =  -1.1589  1:7       =  -3.5164 





 ****     small-signal transfer characteristics

      v(3)/vvip                                =  -30.3545u
      input resistance at             vvip     =  1.000e+20
      output resistance at v(3)                =    2.3829 



 ******  
 .title opa_unity_gain

  ******  transient analysis tnom=  25.000 temp=  27.000 *****
x

        time    voltage      voltage    
                     3            1     
    0.           -1.7915      -2.0000   
   50.00000n     -1.7915       2.0000   
  100.00000n     -1.7915       2.0000   
  150.00000n     -1.7915       2.0000   
  200.00000n     -1.7915       2.0000   
  250.00000n     -1.7915       2.0000   
  300.00000n     -1.7915       2.0000   
  350.00000n     -1.7915       2.0000   
  400.00000n     -1.7915       2.0000   
  450.00000n     -1.7915       2.0000   
  500.00000n     -1.7915       2.0000   
  550.00000n     -1.7915       2.0000   
  600.00000n     -1.7915       2.0000   
  650.00000n     -1.7915       2.0000   
  700.00000n     -1.7915       2.0000   
  750.00000n     -1.7915       2.0000   
  800.00000n     -1.7915       2.0000   
  850.00000n     -1.7915       2.0000   
  900.00000n     -1.7915       2.0000   
  950.00000n     -1.7915       2.0000   
    1.00000u     -1.7915       2.0000   
    1.05000u     -1.7915       2.0000   
    1.10000u     -1.7915       2.0000   
    1.15000u     -1.7915       2.0000   
    1.20000u     -1.7915       2.0000   
    1.25000u     -1.7915       2.0000   
    1.30000u     -1.7915       2.0000   
    1.35000u     -1.7915       2.0000   
    1.40000u     -1.7915       2.0000   
    1.45000u     -1.7915       2.0000   
    1.50000u     -1.7915       2.0000   
    1.55000u     -1.7915       2.0000   
    1.60000u     -1.7915       2.0000   
    1.65000u     -1.7915       2.0000   
    1.70000u     -1.7915       2.0000   
    1.75000u     -1.7915       2.0000   
    1.80000u     -1.7915       2.0000   
    1.85000u     -1.7915       2.0000   
    1.90000u     -1.7915       2.0000   
    1.95000u     -1.7915       2.0000   
    2.00000u     -1.7915       2.0000   
    2.05000u     -1.7915      -2.0000   
    2.10000u     -1.7915      -2.0000   
    2.15000u     -1.7915      -2.0000   
    2.20000u     -1.7915      -2.0000   
    2.25000u     -1.7915      -2.0000   
    2.30000u     -1.7915      -2.0000   
    2.35000u     -1.7915      -2.0000   
    2.40000u     -1.7915      -2.0000   
    2.45000u     -1.7915      -2.0000   
    2.50000u     -1.7915      -2.0000   
    2.55000u     -1.7915      -2.0000   
    2.60000u     -1.7915      -2.0000   
    2.65000u     -1.7915      -2.0000   
    2.70000u     -1.7915      -2.0000   
    2.75000u     -1.7915      -2.0000   
    2.80000u     -1.7915      -2.0000   
    2.85000u     -1.7915      -2.0000   
    2.90000u     -1.7915      -2.0000   
    2.95000u     -1.7915      -2.0000   
    3.00000u     -1.7915      -2.0000   
    3.05000u     -1.7915      -2.0000   
    3.10000u     -1.7915      -2.0000   
    3.15000u     -1.7915      -2.0000   
    3.20000u     -1.7915      -2.0000   
    3.25000u     -1.7915      -2.0000   
    3.30000u     -1.7915      -2.0000   
    3.35000u     -1.7915      -2.0000   
    3.40000u     -1.7915      -2.0000   
    3.45000u     -1.7915      -2.0000   
    3.50000u     -1.7915      -2.0000   
    3.55000u     -1.7915      -2.0000   
    3.60000u     -1.7915      -2.0000   
    3.65000u     -1.7915      -2.0000   
    3.70000u     -1.7915      -2.0000   
    3.75000u     -1.7915      -2.0000   
    3.80000u     -1.7915      -2.0000   
    3.85000u     -1.7915      -2.0000   
    3.90000u     -1.7915      -2.0000   
    3.95000u     -1.7915      -2.0000   
    4.00000u     -1.7915      -2.0000   
    4.05000u     -1.7915    -100.0000m  
    4.10000u     -1.7915    -100.0000m  
    4.15000u     -1.7915    -100.0000m  
    4.20000u     -1.7915    -100.0000m  
    4.25000u     -1.7915    -100.0000m  
    4.30000u     -1.7915    -100.0000m  
    4.35000u     -1.7915    -100.0000m  
    4.40000u     -1.7915    -100.0000m  
    4.45000u     -1.7915    -100.0000m  
    4.50000u     -1.7915    -100.0000m  
    4.55000u     -1.7915    -100.0000m  
    4.60000u     -1.7915    -100.0000m  
    4.65000u     -1.7915    -100.0000m  
    4.70000u     -1.7915    -100.0000m  
    4.75000u     -1.7915    -100.0000m  
    4.80000u     -1.7915    -100.0000m  
    4.85000u     -1.7915    -100.0000m  
    4.90000u     -1.7915    -100.0000m  
    4.95000u     -1.7915    -100.0000m  
    5.00000u     -1.7915    -100.0000m  
    5.05000u     -1.7915    -100.0000m  
    5.10000u     -1.7915    -100.0000m  
    5.15000u     -1.7915    -100.0000m  
    5.20000u     -1.7915    -100.0000m  
    5.25000u     -1.7915    -100.0000m  
    5.30000u     -1.7915    -100.0000m  
    5.35000u     -1.7915    -100.0000m  
    5.40000u     -1.7915    -100.0000m  
    5.45000u     -1.7915    -100.0000m  
    5.50000u     -1.7915    -100.0000m  
    5.55000u     -1.7915    -100.0000m  
    5.60000u     -1.7915    -100.0000m  
    5.65000u     -1.7915    -100.0000m  
    5.70000u     -1.7915    -100.0000m  
    5.75000u     -1.7915    -100.0000m  
    5.80000u     -1.7915    -100.0000m  
    5.85000u     -1.7915    -100.0000m  
    5.90000u     -1.7915    -100.0000m  
    5.95000u     -1.7915    -100.0000m  
    6.00000u     -1.7915    -100.0000m  
    6.05000u     -1.7915     100.0000m  
    6.10000u     -1.7915     100.0000m  
    6.15000u     -1.7915     100.0000m  
    6.20000u     -1.7915     100.0000m  
    6.25000u     -1.7915     100.0000m  
    6.30000u     -1.7915     100.0000m  
    6.35000u     -1.7915     100.0000m  
    6.40000u     -1.7915     100.0000m  
    6.45000u     -1.7915     100.0000m  
    6.50000u     -1.7915     100.0000m  
    6.55000u     -1.7915     100.0000m  
    6.60000u     -1.7915     100.0000m  
    6.65000u     -1.7915     100.0000m  
    6.70000u     -1.7915     100.0000m  
    6.75000u     -1.7915     100.0000m  
    6.80000u     -1.7915     100.0000m  
    6.85000u     -1.7915     100.0000m  
    6.90000u     -1.7915     100.0000m  
    6.95000u     -1.7915     100.0000m  
    7.00000u     -1.7915     100.0000m  
    7.05000u     -1.7915     100.0000m  
    7.10000u     -1.7915     100.0000m  
    7.15000u     -1.7915     100.0000m  
    7.20000u     -1.7915     100.0000m  
    7.25000u     -1.7915     100.0000m  
    7.30000u     -1.7915     100.0000m  
    7.35000u     -1.7915     100.0000m  
    7.40000u     -1.7915     100.0000m  
    7.45000u     -1.7915     100.0000m  
    7.50000u     -1.7915     100.0000m  
    7.55000u     -1.7915     100.0000m  
    7.60000u     -1.7915     100.0000m  
    7.65000u     -1.7915     100.0000m  
    7.70000u     -1.7915     100.0000m  
    7.75000u     -1.7915     100.0000m  
    7.80000u     -1.7915     100.0000m  
    7.85000u     -1.7915     100.0000m  
    7.90000u     -1.7915     100.0000m  
    7.95000u     -1.7915     100.0000m  
    8.00000u     -1.7915     100.0000m  
    8.05000u     -1.7915    -100.0000m  
    8.10000u     -1.7915    -100.0000m  
    8.15000u     -1.7915    -100.0000m  
    8.20000u     -1.7915    -100.0000m  
    8.25000u     -1.7915    -100.0000m  
    8.30000u     -1.7915    -100.0000m  
    8.35000u     -1.7915    -100.0000m  
    8.40000u     -1.7915    -100.0000m  
    8.45000u     -1.7915    -100.0000m  
    8.50000u     -1.7915    -100.0000m  
    8.55000u     -1.7915    -100.0000m  
    8.60000u     -1.7915    -100.0000m  
    8.65000u     -1.7915    -100.0000m  
    8.70000u     -1.7915    -100.0000m  
    8.75000u     -1.7915    -100.0000m  
    8.80000u     -1.7915    -100.0000m  
    8.85000u     -1.7915    -100.0000m  
    8.90000u     -1.7915    -100.0000m  
    8.95000u     -1.7915    -100.0000m  
    9.00000u     -1.7915    -100.0000m  
    9.05000u     -1.7915    -100.0000m  
    9.10000u     -1.7915    -100.0000m  
    9.15000u     -1.7915    -100.0000m  
    9.20000u     -1.7915    -100.0000m  
    9.25000u     -1.7915    -100.0000m  
    9.30000u     -1.7915    -100.0000m  
    9.35000u     -1.7915    -100.0000m  
    9.40000u     -1.7915    -100.0000m  
    9.45000u     -1.7915    -100.0000m  
    9.50000u     -1.7915    -100.0000m  
    9.55000u     -1.7915    -100.0000m  
    9.60000u     -1.7915    -100.0000m  
    9.65000u     -1.7915    -100.0000m  
    9.70000u     -1.7915    -100.0000m  
    9.75000u     -1.7915    -100.0000m  
    9.80000u     -1.7915    -100.0000m  
    9.85000u     -1.7915    -100.0000m  
    9.90000u     -1.7915    -100.0000m  
    9.95000u     -1.7915    -100.0000m  
   10.00000u     -1.7915    -100.0000m  
y

          ***** job concluded
1****** HSPICE -- F-2011.09 32-BIT (Sep  5 2011) winnt ******                   
 ******  
 .title opa_unity_gain

  ******  job statistics summary tnom=  25.000 temp=  27.000 *****

  ******  HSPICE Threads Information  ******

  Command Line Threads Count :     1
  Available CPU Count        :    16
  Actual Threads Count       :     1


  ******  Circuit Statistics  ******
  # nodes       =       9 # elements   =      14
  # resistors   =       0 # capacitors =       2 # inductors   =       0
  # mutual_inds =       0 # vccs       =       0 # vcvs        =       0
  # cccs        =       0 # ccvs       =       0 # volt_srcs   =       3
  # curr_srcs   =       1 # diodes     =       0 # bjts        =       0
  # jfets       =       0 # mosfets    =       8 # U elements  =       0
  # T elements  =       0 # W elements =       0 # B elements  =       0
  # S elements  =       0 # P elements =       0 # va device   =       0
  # vector_srcs =       0


  ******  Runtime Statistics (seconds)  ******

  analysis           time    # points   tot. iter  conv.iter
  op point           0.01           1          17
  dc sweep           0.00          51         116
  transient          0.04         201        2161        1076 rev=        25
  readin             0.05
  errchk             0.01
  setup              0.01
  output             0.00


           peak memory used         44.19 megabytes
           total cpu time            0.14 seconds
           total elapsed time        0.61 seconds
           job started at     23:02:03 01/07/2023
           job ended   at     23:02:03 01/07/2023


  lic: Release hspice token(s) 
