 ****** HSPICE -- F-2011.09 32-BIT (Sep  5 2011) winnt ******                   
  Copyright (C) 2011 Synopsys, Inc. All Rights Reserved.                        
  Unpublished-rights reserved under US copyright laws.
  This program is protected by law and is subject to the
  terms and conditions of the license agreement from Synopsys.
  Use of this program is your acceptance to be bound by the
  license agreement. HSPICE is the trademark of Synopsys, Inc.
  Input File: e:\ee\project\spice\1.0\opa_open_loop.sp                          
  Command line options: -i e:\ee\project\spice\1.0\opa_open_loop.sp -o e:\ee\project\spice\1.0\opa_open_loop.lis
  lic:  
  lic: FLEXlm: v10.8 
  lic: USER:   shabi                HOSTNAME: Kunlin-Yuquan 
  lic: HOSTID: "581122b93f59 346f24e5c2cc 005056c00001 005056c00008 00ffe567be1a
  
  lic: Using FLEXlm license file: 
  lic: E:\EE\A3-H$pice2011.09\hspice2011_crack\hspice2011_crack\license1.dat 
  lic: Checkout 1 hspice 
  lic: License/Maintenance for hspice will expire on 31-dec-2030/2030.12 
  lic: NODE LOCKED license on hostid "581122b93f59 346f24e5c2cc 005056c00001 005
 0
  lic:   
 Init: read install configuration file: E:\EE\Hspice\meta.cfg

 **warning**  runlvl smaller than 5, reset to 5  when accurate turned on

 **warning**  runlvl smaller than 5, reset to 5  when accurate turned on
1****** HSPICE -- F-2011.09 32-BIT (Sep  5 2011) winnt ******                   
 ******  
 .title opa_open_loop

  ******  circuit name directory
 circuit number to circuit name directory
   number circuitname                     definition         multiplier
        0 main circuit
        1 x1.                             opamp              1.00 
1****** HSPICE -- F-2011.09 32-BIT (Sep  5 2011) winnt ******                   
 ******  
 .title opa_open_loop

  ******  mos   model parameters tnom=  25.000 temp=  25.000 *****
 ***************************************************************************
 *** common model parameters  model name:   1:p08      model type:pmos   ***
 ***************************************************************************
     names  values   units     names  values   units     names  values   units
     -----  ------   -----     -----  ------   -----     -----  ------   -----

   1*** geometry parameters ***
       ld=  14.00n meters      lmlt=   1.00                wd=   0.    meters 
     wmlt=   1.00                xl=   0.    meters        xw=   0.    meters 
     lref=   0.    meters      wref=   0.    meters      lref=   0.    meters 
     wref=   0.    meters     xlref=   0.    meters     xwref=   0.    meters 
     lmin=   0.    meters      wmin=   0.    meters      lmax=   0.    meters 
     wmax=   0.    meters 

   2*** threshold voltage parameters ***
      vto=-700.00m volts        nss=   0.    1/cm**2      tpg=   1.00         
      phi= 800.00m volts      gamma= 570.00m v**0.5      bulk=  gnd           
    ngate=   0.    cm**3       nsub= 5.9e+16 1/cm**3   delvto=   0.    volts  

   3*** gate overlap capacitance parameters ***
     cgbo= 700.00p f/meter     cgdo= 220.00p f/meter     cgso= 220.00p f/meter
     meto=   0.    meters 

   4*** gate capacitance parameters ***
    capop=   2.00               cf1=   0.    volts        cf2= 100.00m volts  
      cf3=   1.00  volts        cf4=  50.00               cf5= 666.67m        
      cf6= 500.00               xqc= 500.00m              tox=  14.00n meters 
      cox=   2.47m f/m**2 

   5*** diffusion parasitic parameters ***
      acm=   0.                  is=  10.00f amps          js=   0.    a/m**2 
      jsw=   0.    amp/m        nds=   1.00               cbd=   0.    farad  
      cbs=   0.    farad         cj= 560.00u f/m**2      cjsw= 350.00p f/m    
   cjgate= 350.00p f/m           mj= 500.00m             mjsw= 350.00m        
       pb= 800.00m volts        php= 800.00m volts         tt=   0.    secs   
     hdif=   0.    meters      ldif=   0.    meters        rd=   0.    ohms   
       rs=   0.    ohms         rsh=   0.    ohms/sq       fc=   0.           
    alpha=   0.                 vcr=   0.    volts      iirat=   0.           
      rdc=   0.    ohms         rsc=   0.    ohms           n=   1.00         
     vnds=  -1.00  volts  

   6*** temperature effect parameters ***
     tlev=   0.               tlevc=   0.                  eg=   1.11  ev     
     gap1= 702.00u ev/deg      gap2=   1.11k deg          xti=   0.           
      bex=  -1.50               tcv=   0.    v/deg k      trd=   0.    /deg   
      trs=   0.    /deg         cta=   0.    /deg         ctp=   0.    /deg   

   7*** noise parameters ***
       kf=   0.                  af=   1.00              nlev=   2.00         
   gdsnoi=   1.00         

   ***  level  1  model parameters  ***

   lambda=  50.00m /v            kp=  50.00u a/v**2 
  
      
 **info** set option symb=1 internally to help for convergence.
 *****************************************************************
 ******  option summary
 ******
 runlvl  = 5         bypass  = 2         
  Opening plot unit= 79
 file=e:\ee\project\spice\1.0\opa_open_loop.pa0                                





 ****     small-signal transfer characteristics

        vvip       input resistance at vvip      output resistance at v(3)        v(3)/vvip     

      -5.0000m           1.000e+20                       2.3834                     0.     
      -4.9000m           1.000e+20                       2.3834                     0.     
      -4.8000m           1.000e+20                       2.3834                     0.     
      -4.7000m           1.000e+20                       2.3834                     0.     
      -4.6000m           1.000e+20                       2.3834                     0.     
      -4.5000m           1.000e+20                       2.3834                     0.     
      -4.4000m           1.000e+20                       2.3834                     0.     
      -4.3000m           1.000e+20                       2.3834                     0.     
      -4.2000m           1.000e+20                       2.3834                     0.     
      -4.1000m           1.000e+20                       2.3834                     0.     
      -4.0000m           1.000e+20                       2.3834                     0.     
      -3.9000m           1.000e+20                       2.3834                     0.     
      -3.8000m           1.000e+20                       2.3834                     0.     
      -3.7000m           1.000e+20                       2.3834                     0.     
      -3.6000m           1.000e+20                       2.3834                     0.     
      -3.5000m           1.000e+20                       2.3834                     0.     
      -3.4000m           1.000e+20                       2.3834                     0.     
      -3.3000m           1.000e+20                       2.3834                     0.     
      -3.2000m           1.000e+20                       2.3834                     0.     
      -3.1000m           1.000e+20                       2.3834                     0.     
      -3.0000m           1.000e+20                       2.3834                     0.     
      -2.9000m           1.000e+20                       2.3834                     0.     
      -2.8000m           1.000e+20                       2.3834                     0.     
      -2.7000m           1.000e+20                       2.3834                     0.     
      -2.6000m           1.000e+20                       2.3834                     0.     
      -2.5000m           1.000e+20                       2.3834                     0.     
      -2.4000m           1.000e+20                       2.3834                     0.     
      -2.3000m           1.000e+20                       2.3834                     0.     
      -2.2000m           1.000e+20                       2.3834                     0.     
      -2.1000m           1.000e+20                       2.3834                     0.     
      -2.0000m           1.000e+20                       2.3834                     0.     
      -1.9000m           1.000e+20                       2.3834                     0.     
      -1.8000m           1.000e+20                       2.3834                     0.     
      -1.7000m           1.000e+20                       2.3834                     0.     
      -1.6000m           1.000e+20                       2.3834                     0.     
      -1.5000m           1.000e+20                       2.3834                     0.     
      -1.4000m           1.000e+20                       2.3834                     0.     
      -1.3000m           1.000e+20                       2.3834                     0.     
      -1.2000m           1.000e+20                       2.3834                     0.     
      -1.1000m           1.000e+20                       2.3834                     0.     
      -1.0000m           1.000e+20                       2.3834                     0.     
    -900.0000u           1.000e+20                       2.3834                     0.     
    -800.0000u           1.000e+20                       2.3834                     0.     
    -700.0000u           1.000e+20                       2.3834                     0.     
    -600.0000u           1.000e+20                       2.3834                     0.     
    -500.0000u           1.000e+20                       2.3834                     0.     
    -400.0000u           1.000e+20                       2.3834                     0.     
    -300.0000u           1.000e+20                       2.3834                     0.     
    -200.0000u           1.000e+20                       2.3834                     0.     
    -100.0000u           1.000e+20                       2.3834                     0.     
    -8.674e-19           1.000e+20                       2.3834                     0.     
     100.0000u           1.000e+20                       2.3834                     0.     
     200.0000u           1.000e+20                       2.3834                     0.     
     300.0000u           1.000e+20                       2.3834                     0.     
     400.0000u           1.000e+20                       2.3834                     0.     
     500.0000u           1.000e+20                       2.3834                     0.     
     600.0000u           1.000e+20                       2.3834                     0.     
     700.0000u           1.000e+20                       2.3834                     0.     
     800.0000u           1.000e+20                       2.3834                     0.     
     900.0000u           1.000e+20                       2.3834                     0.     
       1.0000m           1.000e+20                       2.3834                     0.     
       1.1000m           1.000e+20                       2.3834                     0.     
       1.2000m           1.000e+20                       2.3834                     0.     
       1.3000m           1.000e+20                       2.3834                     0.     
       1.4000m           1.000e+20                       2.3834                     0.     
       1.5000m           1.000e+20                       2.3834                     0.     
       1.6000m           1.000e+20                       2.3834                     0.     
       1.7000m           1.000e+20                       2.3834                     0.     
       1.8000m           1.000e+20                       2.3834                     0.     
       1.9000m           1.000e+20                       2.3834                     0.     
       2.0000m           1.000e+20                       2.3834                     0.     
       2.1000m           1.000e+20                       2.3834                     0.     
       2.2000m           1.000e+20                       2.3834                     0.     
       2.3000m           1.000e+20                       2.3834                     0.     
       2.4000m           1.000e+20                       2.3834                     0.     
       2.5000m           1.000e+20                       2.3834                     0.     
       2.6000m           1.000e+20                       2.3834                     0.     
       2.7000m           1.000e+20                       2.3834                     0.     
       2.8000m           1.000e+20                       2.3834                     0.     
       2.9000m           1.000e+20                       2.3834                     0.     
       3.0000m           1.000e+20                       2.3834                     0.     
       3.1000m           1.000e+20                       2.3834                     0.     
       3.2000m           1.000e+20                       2.3834                     0.     
       3.3000m           1.000e+20                       2.3834                     0.     
       3.4000m           1.000e+20                       2.3834                     0.     
       3.5000m           1.000e+20                       2.3834                     0.     
       3.6000m           1.000e+20                       2.3834                     0.     
       3.7000m           1.000e+20                       2.3834                     0.     
       3.8000m           1.000e+20                       2.3834                     0.     
       3.9000m           1.000e+20                       2.3834                     0.     
       4.0000m           1.000e+20                       2.3834                     0.     
       4.1000m           1.000e+20                       2.3834                     0.     
       4.2000m           1.000e+20                       2.3834                     0.     
       4.3000m           1.000e+20                       2.3834                     0.     
       4.4000m           1.000e+20                       2.3834                     0.     
       4.5000m           1.000e+20                       2.3834                     0.     
       4.6000m           1.000e+20                       2.3834                     0.     
       4.7000m           1.000e+20                       2.3834                     0.     
       4.8000m           1.000e+20                       2.3834                     0.     
       4.9000m           1.000e+20                       2.3834                     0.     
       5.0000m           1.000e+20                       2.3834                     0.     
  
 ******  
 .title opa_open_loop

  ******  dc transfer curves tnom=  25.000 temp=  27.000 *****
x

        volt    voltage    
                     3     
   -5.00000m     -1.7915   
   -4.90000m     -1.7915   
   -4.80000m     -1.7915   
   -4.70000m     -1.7915   
   -4.60000m     -1.7915   
   -4.50000m     -1.7915   
   -4.40000m     -1.7915   
   -4.30000m     -1.7915   
   -4.20000m     -1.7915   
   -4.10000m     -1.7915   
   -4.00000m     -1.7915   
   -3.90000m     -1.7915   
   -3.80000m     -1.7915   
   -3.70000m     -1.7915   
   -3.60000m     -1.7915   
   -3.50000m     -1.7915   
   -3.40000m     -1.7915   
   -3.30000m     -1.7915   
   -3.20000m     -1.7915   
   -3.10000m     -1.7915   
   -3.00000m     -1.7915   
   -2.90000m     -1.7915   
   -2.80000m     -1.7915   
   -2.70000m     -1.7915   
   -2.60000m     -1.7915   
   -2.50000m     -1.7915   
   -2.40000m     -1.7915   
   -2.30000m     -1.7915   
   -2.20000m     -1.7915   
   -2.10000m     -1.7915   
   -2.00000m     -1.7915   
   -1.90000m     -1.7915   
   -1.80000m     -1.7915   
   -1.70000m     -1.7915   
   -1.60000m     -1.7915   
   -1.50000m     -1.7915   
   -1.40000m     -1.7915   
   -1.30000m     -1.7915   
   -1.20000m     -1.7915   
   -1.10000m     -1.7915   
   -1.00000m     -1.7915   
 -900.00000u     -1.7915   
 -800.00000u     -1.7915   
 -700.00000u     -1.7915   
 -600.00000u     -1.7915   
 -500.00000u     -1.7915   
 -400.00000u     -1.7915   
 -300.00000u     -1.7915   
 -200.00000u     -1.7915   
 -100.00000u     -1.7915   
 -8.6736e-19     -1.7915   
  100.00000u     -1.7915   
  200.00000u     -1.7915   
  300.00000u     -1.7915   
  400.00000u     -1.7915   
  500.00000u     -1.7915   
  600.00000u     -1.7915   
  700.00000u     -1.7915   
  800.00000u     -1.7915   
  900.00000u     -1.7915   
    1.00000m     -1.7915   
    1.10000m     -1.7915   
    1.20000m     -1.7915   
    1.30000m     -1.7915   
    1.40000m     -1.7915   
    1.50000m     -1.7915   
    1.60000m     -1.7915   
    1.70000m     -1.7915   
    1.80000m     -1.7915   
    1.90000m     -1.7915   
    2.00000m     -1.7915   
    2.10000m     -1.7915   
    2.20000m     -1.7915   
    2.30000m     -1.7915   
    2.40000m     -1.7915   
    2.50000m     -1.7915   
    2.60000m     -1.7915   
    2.70000m     -1.7915   
    2.80000m     -1.7915   
    2.90000m     -1.7915   
    3.00000m     -1.7915   
    3.10000m     -1.7915   
    3.20000m     -1.7915   
    3.30000m     -1.7915   
    3.40000m     -1.7915   
    3.50000m     -1.7915   
    3.60000m     -1.7915   
    3.70000m     -1.7915   
    3.80000m     -1.7915   
    3.90000m     -1.7915   
    4.00000m     -1.7915   
    4.10000m     -1.7915   
    4.20000m     -1.7915   
    4.30000m     -1.7915   
    4.40000m     -1.7915   
    4.50000m     -1.7915   
    4.60000m     -1.7915   
    4.70000m     -1.7915   
    4.80000m     -1.7915   
    4.90000m     -1.7915   
    5.00000m     -1.7915   
y
1****** HSPICE -- F-2011.09 32-BIT (Sep  5 2011) winnt ******                   
 ******  
 .title opa_open_loop

  ******  operating point information tnom=  25.000 temp=  27.000 *****
 ***** operating point status is all       simulation time is     0.     
    node    =voltage      node    =voltage      node    =voltage

 +0:1       =   0.      0:2       =   0.      0:3       =  -1.7915 
 +0:4       =   2.5000  0:5       =  -2.5000  1:3       =  -1.8216 
 +1:4       =  -1.1586  1:5       =  -1.1586  1:7       =  -3.5164 


 **** voltage sources

 subckt                                              
 element  0:vdd      0:vss      0:vvip     0:vvin    
  volts      2.5000     2.5000     0.         0.     
  current  -15.6333m  -15.6333m    0.         0.     
  power     39.0833m   39.0833m    0.         0.     

     total voltage source power dissipation=   78.1667m       watts



 **** current sources

 subckt   x1        
 element  1:ibias   
  volts     -1.0164 
  current   30.0000u
  power     30.4918u


     total current source power dissipation=  30.4918u       watts


 **** mosfets


 subckt   x1         x1         x1         x1         x1         x1        
 element  1:m1       1:m2       1:m3       1:m4       1:m5       1:m6      
 model    1:p08      1:p08      1:p08      1:p08      1:p08      1:p08     
 region       Cutoff     Cutoff   Saturati   Saturati     Linear   Saturati
  id         0.         0.        -1.8493m   -1.8493m  343.8224u  -11.9348m
  ibs        0.         0.         0.         0.         0.         0.     
  ibd       -1.8493m   -1.8493m   49.8812f   49.8812f   -3.3547m   58.5093f
  vgs        1.8216     1.8216    -3.6586    -3.6586    -1.0164    -3.6586 
  vds      662.9831m  662.9831m   -3.6586    -3.6586   678.3872m   -4.2915 
  vbs        0.         0.         0.         0.         0.         0.     
  vth     -485.4651m -485.4651m -697.1376m -697.1376m -480.5470m -697.1376m
  vdsat      0.         0.        -2.9615    -2.9615  -678.3872m   -2.9615 
  vod        2.3071     2.3071    -2.9615    -2.9615  -535.8479m   -2.9615 
  beta     305.5622u  305.5622u  421.7024u  421.7024u  579.1990u    2.7216m
  gam eff  570.0000m  570.0000m  570.0000m  570.0000m  570.0000m  570.0000m
  gm         0.         0.         1.2489m    1.2489m  392.9212u    8.0600m
  gds        0.         0.        78.1642u   78.1642u  326.9897u  491.3175u
  gmb        0.         0.       398.7296u  398.7296u  218.4300u    2.5733m
  cdtot     40.9143f   40.9143f   16.5825f   16.5825f   86.6435f   87.2491f
  cgtot     17.8206f   17.8206f   15.0578f   15.0578f   30.7455f   91.1413f
  cstot     29.9422f   29.9422f   45.4194f   45.4194f   36.9300f  263.2564f
  cbtot     83.1662f   83.1662f   48.3594f   48.3594f   94.5361f  261.0675f
  cgs        1.3202f    1.3202f   12.7282f   12.7282f   11.5381f   80.0061f
  cgd        1.4353f    1.4353f    1.6219f    1.6219f   18.3533f   10.2836f



 subckt   x1         x1        
 element  1:m7       1:m8      
 model    1:p08      1:p08     
 region       Linear   Saturati
  id         1.1765m  -30.0000u
  ibs        0.         0.     
  ibd      -10.7583m   13.8574f
  vgs       -1.0164    -1.0164 
  vds      708.5272m   -1.0164 
  vbs        0.         0.     
  vth     -470.9242m -697.1376m
  vdsat   -708.5272m -319.2574m
  vod     -545.4708m -319.2574m
  beta       1.8456m  588.6665u
  gam eff  570.0000m  570.0000m
  gm         1.3077m  187.9361u
  gds        1.0635m    1.4275u
  gmb      751.6940u   60.0029u
  cdtot    266.4839f   35.9544f
  cgtot     96.2142f   23.5139f
  cstot    183.1023f   68.9694f
  cbtot    355.8495f   83.5231f
  cgs       36.4745f   20.0015f
  cgd       58.5009f    2.4557f







 ****     small-signal transfer characteristics

      v(3)/vvip                                =    0.     
      input resistance at             vvip     =  1.000e+20
      output resistance at v(3)                =    2.3834 



 ******  
 .title opa_open_loop

  ******  ac analysis tnom=  25.000 temp=  27.000 *****
x

        freq    volt db      volt phase 
                     3            3     
    1.00000    -274.7664     -90.0000   
    1.25893    -272.7664     -90.0000   
    1.58489    -270.7664     -90.0000   
    1.99526    -268.7664     -90.0000   
    2.51189    -266.7664     -90.0000   
    3.16228    -264.7664     -90.0000   
    3.98107    -262.7664     -90.0000   
    5.01187    -260.7664     -90.0000   
    6.30957    -258.7664     -90.0000   
    7.94328    -256.7664     -90.0000   
   10.00000    -254.7664     -90.0000   
   12.58925    -252.7664     -90.0000   
   15.84893    -250.7664     -90.0000   
   19.95262    -248.7664     -90.0000   
   25.11886    -246.7664     -90.0000   
   31.62278    -244.7664     -90.0000   
   39.81072    -242.7664     -90.0000   
   50.11872    -240.7664     -90.0000   
   63.09573    -238.7664     -90.0000   
   79.43282    -236.7664     -90.0000   
  100.00000    -234.7664     -90.0000   
  125.89254    -232.7664     -90.0000   
  158.48932    -230.7664     -90.0000   
  199.52623    -228.7664     -90.0000   
  251.18864    -226.7664     -90.0000   
  316.22777    -224.7664     -90.0001   
  398.10717    -222.7664     -90.0001   
  501.18723    -220.7664     -90.0001   
  630.95734    -218.7664     -90.0001   
  794.32823    -216.7664     -90.0001   
    1.00000k   -214.7664     -90.0002   
    1.25893k   -212.7664     -90.0002   
    1.58489k   -210.7664     -90.0003   
    1.99526k   -208.7664     -90.0003   
    2.51189k   -206.7664     -90.0004   
    3.16228k   -204.7664     -90.0006   
    3.98107k   -202.7664     -90.0007   
    5.01187k   -200.7664     -90.0009   
    6.30957k   -198.7664     -90.0011   
    7.94328k   -196.7664     -90.0014   
   10.00000k   -194.7664     -90.0018   
   12.58925k   -192.7664     -90.0022   
   15.84893k   -190.7664     -90.0028   
   19.95262k   -188.7664     -90.0035   
   25.11886k   -186.7664     -90.0044   
   31.62278k   -184.7664     -90.0055   
   39.81072k   -182.7664     -90.0070   
   50.11872k   -180.7664     -90.0088   
   63.09573k   -178.7664     -90.0111   
   79.43282k   -176.7664     -90.0139   
  100.00000k   -174.7664     -90.0175   
  125.89254k   -172.7664     -90.0221   
  158.48932k   -170.7664     -90.0278   
  199.52623k   -168.7664     -90.0350   
  251.18864k   -166.7664     -90.0440   
  316.22777k   -164.7664     -90.0554   
  398.10717k   -162.7664     -90.0697   
  501.18723k   -160.7664     -90.0878   
  630.95734k   -158.7664     -90.1105   
  794.32823k   -156.7664     -90.1392   
    1.00000x   -154.7664     -90.1752   
    1.25893x   -152.7664     -90.2205   
    1.58489x   -150.7664     -90.2777   
    1.99526x   -148.7664     -90.3495   
    2.51189x   -146.7663     -90.4400   
    3.16228x   -144.7662     -90.5540   
    3.98107x   -142.7661     -90.6974   
    5.01187x   -140.7659     -90.8780   
    6.30957x   -138.7656     -91.1053   
    7.94328x   -136.7651     -91.3914   
   10.00000x   -134.7644     -91.7515   
   12.58925x   -132.7632     -92.2048   
   15.84893x   -130.7612     -92.7751   
   19.95262x   -128.7582     -93.4926   
   25.11886x   -126.7533     -94.3949   
   31.62278x   -124.7456     -95.5287   
   39.81072x   -122.7334     -96.9520   
   50.11872x   -120.7141     -98.7361   
   63.09573x   -118.6834    -100.9669   
   79.43282x   -116.6349    -103.7467   
  100.00000x   -114.5583    -107.1928   
  125.89254x   -112.4383    -111.4337   
  158.48932x   -110.2530    -116.5990   
  199.52623x   -107.9731    -122.7999   
  251.18864x   -105.5640    -130.0997   
  316.22777x   -102.9908    -138.4807   
  398.10717x   -100.2287    -147.8279   
  501.18723x    -97.2740    -157.9528   
  630.95734x    -94.1518    -168.6564   
  794.32823x    -90.9155    -179.7955   
    1.00000g    -87.6392     168.6915   
y

          ***** job concluded
1****** HSPICE -- F-2011.09 32-BIT (Sep  5 2011) winnt ******                   
 ******  
 .title opa_open_loop

  ******  job statistics summary tnom=  25.000 temp=  27.000 *****

  ******  HSPICE Threads Information  ******

  Command Line Threads Count :     1
  Available CPU Count        :    16
  Actual Threads Count       :     1


  ******  Circuit Statistics  ******
  # nodes       =      10 # elements   =      15
  # resistors   =       0 # capacitors =       2 # inductors   =       0
  # mutual_inds =       0 # vccs       =       0 # vcvs        =       0
  # cccs        =       0 # ccvs       =       0 # volt_srcs   =       4
  # curr_srcs   =       1 # diodes     =       0 # bjts        =       0
  # jfets       =       0 # mosfets    =       8 # U elements  =       0
  # T elements  =       0 # W elements =       0 # B elements  =       0
  # S elements  =       0 # P elements =       0 # va device   =       0
  # vector_srcs =       0


  ******  Runtime Statistics (seconds)  ******

  analysis           time    # points   tot. iter  conv.iter
  op point           0.00           1          15
  dc sweep           0.00         101         214
  ac analysis        0.04          91          91
  readin             0.05
  errchk             0.01
  setup              0.01
  output             0.00


           peak memory used         44.22 megabytes
           total cpu time            0.13 seconds
           total elapsed time        0.61 seconds
           job started at     22:59:45 01/07/2023
           job ended   at     22:59:45 01/07/2023


  lic: Release hspice token(s) 
