 ****** HSPICE -- F-2011.09 32-BIT (Sep  5 2011) winnt ******                   
  Copyright (C) 2011 Synopsys, Inc. All Rights Reserved.                        
  Unpublished-rights reserved under US copyright laws.
  This program is protected by law and is subject to the
  terms and conditions of the license agreement from Synopsys.
  Use of this program is your acceptance to be bound by the
  license agreement. HSPICE is the trademark of Synopsys, Inc.
  Input File: e:\ee\project\spice\2.0\gm_ac.sp                                  
  Command line options: -i e:\ee\project\spice\2.0\gm_ac.sp -o e:\ee\project\spice\2.0\gm_ac.lis
  lic:  
  lic: FLEXlm: v10.8 
  lic: USER:   shabi                HOSTNAME: Kunlin-Yuquan 
  lic: HOSTID: "581122b93f59 346f24e5c2cc 005056c00001 005056c00008 00ffe567be1a
  
  lic: Using FLEXlm license file: 
  lic: E:\EE\A3-H$pice2011.09\hspice2011_crack\hspice2011_crack\license1.dat 
  lic: Checkout 1 hspice 
  lic: License/Maintenance for hspice will expire on 31-dec-2030/2030.12 
  lic: NODE LOCKED license on hostid "581122b93f59 346f24e5c2cc 005056c00001 005
 0
  lic:   
 Init: read install configuration file: E:\EE\Hspice\meta.cfg
  **warning** (E:\EE\project\spice\2.0\ms018.mdl:20) Model n18 device geometries will not be checked against the limits set by lmin, lmax, wmin and wmax. To enable this check, add a period(.) to the model name(i.e. enable model selector).

 **warning**  runlvl smaller than 5, reset to 5  when accurate turned on
  **warning** (e:\ee\project\spice\2.0\gm_ac.sp:3) Global net name, "gnd", in subckt pin list. The pin will be connected to the local net. Recommend to not use global net names in subckt pin lists.

 **warning**  runlvl smaller than 5, reset to 5  when accurate turned on
1****** HSPICE -- F-2011.09 32-BIT (Sep  5 2011) winnt ******                   
 ******  
 .title gm_ac

  ******  circuit name directory
 circuit number to circuit name directory
   number circuitname                     definition         multiplier
        0 main circuit
        1 x1.                             gm_c_3th_lowpass   1.00 
        2 x1.xi45.                        ota                1.00 
        3 x1.xi49.                        ota                1.00 
        4 x1.xi46.                        ota                1.00 
        5 x1.xi47.                        ota                1.00 
        6 x1.xi1.                         ota                1.00 
        7 x1.xi44.                        ota                1.00 
        8 x1.xi48.                        ota                1.00 
  **warning** (e:\ee\project\spice\2.0\gm_ac.sp:40) Both nodes of element vgnd are connected together; Line ignored.
 

  
      
 **info** set option symb=1 internally to help for convergence.
 *****************************************************************
 ******  option summary
 ******
 runlvl  = 5         bypass  = 2         
  Opening plot unit= 79
 file=e:\ee\project\spice\2.0\gm_ac.pa0                                        

 **info** dc convergence successful
 you can increase the efficiency of the
 operating point calculation by setting dcon= 1
 in the .option statement
1****** HSPICE -- F-2011.09 32-BIT (Sep  5 2011) winnt ******                   
 ******  
 .title gm_ac

  ******  operating point information tnom=  25.000 temp=  27.000 *****
 ***** operating point status is all       simulation time is     0.     
    node    =voltage      node    =voltage      node    =voltage

 +0:ibias   = 581.4676m 0:vcmfb   = 900.0000m 0:vdd     =   1.8000 
 +0:vin_i   = 900.0000m 0:vin_ib  = 900.0000m 0:vout_i  = 899.8777m
 +0:vout_ib = 899.8777m 1:net055  = 899.8771m 1:net056  = 899.8771m
 +1:net83   = 899.8777m 1:net84   = 899.8777m 1:vout_ib/= 899.8777m
 +2:net0124 =   1.1936  2:net053  = 339.3166m 2:net065  = 339.3166m
 +2:net29   = 301.7963m 2:net39   = 301.7963m 3:net0124 =   1.1936 
 +3:net053  = 339.3168m 3:net065  = 339.3168m 3:net29   = 301.7968m
 +3:net39   = 301.7968m 4:net0124 =   1.1936  4:net053  = 339.3168m
 +4:net065  = 339.3168m 4:net29   = 301.7963m 4:net39   = 301.7963m
 +5:net0124 =   1.1936  5:net053  = 339.3168m 5:net065  = 339.3168m
 +5:net29   = 301.7968m 5:net39   = 301.7968m 6:net0124 =   1.1936 
 +6:net053  = 339.3166m 6:net065  = 339.3166m 6:net29   = 301.8932m
 +6:net39   = 301.8932m 7:net0124 =   1.1936  7:net053  = 339.3166m
 +7:net065  = 339.3166m 7:net29   = 301.7968m 7:net39   = 301.7968m
 +8:net0124 =   1.1936  8:net053  = 339.3168m 8:net065  = 339.3168m
 +8:net29   = 301.7968m 8:net39   = 301.7968m


 maximum nodal capacitance=   7.100E-11         on node     0:vdd             

    nodal  capacitance table 

    node    =    cap      node    =    cap      node    =    cap

 +0:ibias   =   5.0047p 0:vcmfb   =  11.9235p 0:vdd     =  70.9999p
 +0:vin_i   = 926.4853f 0:vin_ib  = 926.4853f 0:vout_i  =  12.8972p
 +0:vout_ib =  11.7826p 1:net055  =  14.0118p 1:net056  =  14.0118p
 +1:net83   =   8.4132p 1:net84   =   8.4132p 1:vout_ib/=   1.1146p
 +2:net0124 =   6.4646p 2:net053  =   1.8288p 2:net065  =   1.8288p
 +2:net29   =   1.0407p 2:net39   =   1.0407p 3:net0124 =   6.4645p
 +3:net053  =   1.8288p 3:net065  =   1.8288p 3:net29   =   1.0407p
 +3:net39   =   1.0407p 4:net0124 =   6.4645p 4:net053  =   1.8288p
 +4:net065  =   1.8288p 4:net29   =   1.0407p 4:net39   =   1.0407p
 +5:net0124 =   6.4645p 5:net053  =   1.8288p 5:net065  =   1.8288p
 +5:net29   =   1.0407p 5:net39   =   1.0407p 6:net0124 =   6.4646p
 +6:net053  =   1.8288p 6:net065  =   1.8288p 6:net29   =   1.0407p
 +6:net39   =   1.0407p 7:net0124 =   6.4646p 7:net053  =   1.8288p
 +7:net065  =   1.8288p 7:net29   =   1.0407p 7:net39   =   1.0407p
 +8:net0124 =   6.4645p 8:net053  =   1.8288p 8:net065  =   1.8288p
 +8:net29   =   1.0407p 8:net39   =   1.0407p

 

 **** voltage sources

 subckt                                              
 element  0:vvdd     0:vvcmfb   0:vvin_i   0:vvin_ib 
  volts      1.8000   900.0000m  900.0000m  900.0000m
  current   -3.4440m    0.         0.         0.     
  power      6.1992m    0.         0.         0.     

     total voltage source power dissipation=    6.1992m       watts



 **** current sources

 subckt             
 element  0:iibias  
  volts      1.2185 
  current  700.0000u
  power   -852.9727u


     total current source power dissipation=-852.9727u       watts

 **** resistors

 subckt   x1.xi45    x1.xi49    x1.xi46    x1.xi47    x1.xi1     x1.xi44   
 element  2:r1       3:r1       4:r1       5:r1       6:r1       7:r1      
  r value    9.0000k    9.0000k    9.0000k    9.0000k    9.0000k    9.0000k
  v drop     1.2611p  657.7516f   -1.3076p -268.5629f   -7.9381f  280.7754f
  current  140.1225a   73.0835a -145.2850a  -29.8403a -8.820e-19   31.1973a
  power    1.767e-28    0.       1.900e-28    0.         0.         0.     

 subckt   x1.xi48   
 element  8:r1      
  r value    9.0000k
  v drop   396.1276f
  current   44.0142a
  power      0.     



 **** mosfets


 subckt   x1.xi45    x1.xi45    x1.xi45    x1.xi45    x1.xi45    x1.xi45   
 element  2:mbias    2:m1       2:m2       2:m3       2:m4       2:m5      
 model    0:n18      0:n18      0:n18      0:n18      0:n18      0:p18     
 region     Saturati   Saturati   Saturati   Saturati   Saturati   Saturati
  id       100.0000u   97.7536u   97.7536u   97.7536u   97.7536u  -97.7541u
  ibs     -1.360e-19  -76.7802a  -76.7802a -1.330e-19 -1.330e-19  3.689e-19
  ibd      -38.8362a -454.8341a -454.8341a  -20.7217a  -20.7217a   74.4809a
  vgs      581.4676m  598.0807m  598.0807m  581.4676m  581.4676m -606.4422m
  vds      581.4676m  598.0807m  598.0807m  301.7963m  301.7963m -900.1229m
  vbs        0.      -301.7963m -301.7963m    0.         0.         0.     
  vth      412.5916m  486.4164m  486.4164m  412.5935m  412.5935m -412.9211m
  vdsat    169.3377m  132.3241m  132.3241m  169.3392m  169.3392m -186.7624m
  vod      168.8760m  111.6643m  111.6643m  168.8741m  168.8741m -193.5211m
  beta       6.8061m   12.7436m   12.7436m    6.8061m    6.8061m    5.5146m
  gam eff  773.0806m  788.7775m  788.7775m  773.0804m  773.0804m  575.5484m
  gm         1.0117m    1.3176m    1.3176m  983.8434u  983.8434u  900.9070u
  gds        5.2290u    3.9061u    3.9061u   14.9670u   14.9670u    1.9688u
  gmb      300.0504u  334.8016u  334.8016u  291.9301u  291.9301u  289.4597u
  cdtot     21.6401f   76.6370f   76.6370f   24.3340f   24.3340f  186.7865f
  cgtot    138.2412f  926.4862f  926.4862f  138.8747f  138.8747f    2.0396p
  cstot    159.4950f    1.0164p    1.0164p  159.2722f  159.2722f    2.3587p
  cbtot     78.5870f  415.0232f  415.0232f   80.1296f   80.1296f  973.7845f
  cgs      115.9883f  783.4692f  783.4692f  116.2663f  116.2663f    1.7975p
  cgd        7.4300f   27.9928f   27.9928f    7.9689f    7.9689f   66.6359f



 subckt   x1.xi45    x1.xi45    x1.xi45    x1.xi45    x1.xi45    x1.xi45   
 element  2:m6       2:m7       2:m8       2:m9       2:m10      2:m11     
 model    0:p18      0:p18      0:n18      0:n18      0:n18      0:n18     
 region     Saturati   Saturati   Saturati   Saturati   Saturati   Saturati
  id       -97.7541u  -97.1532u   49.6643u   48.5766u   48.5766u   49.6643u
  ibs      3.689e-19  3.666e-19  -76.7810a  -76.7810a  -76.7810a  -76.7810a
  ibd       74.4809a   67.8020a   -3.4887n   -2.6098p   -2.6098p   -3.4887n
  vgs     -606.4422m -606.4422m  560.5605m  560.6834m  560.6834m  560.5605m
  vds     -900.1229m -606.4422m    1.4607   854.2412m  854.2412m    1.4607 
  vbs        0.         0.      -339.3166m -339.3166m -339.3166m -339.3166m
  vth     -412.9211m -412.9208m  496.1390m  496.1385m  496.1385m  496.1390m
  vdsat   -186.7624m -186.7633m  100.3449m  100.4241m  100.4241m  100.3449m
  vod     -193.5211m -193.5214m   64.4216m   64.5449m   64.5449m   64.4216m
  beta       5.5146m    5.5146m   12.7809m   12.7808m   12.7808m   12.7809m
  gam eff  575.5484m  575.5484m  790.4800m  790.4799m  790.4799m  790.4800m
  gm       900.9070u  895.9005u  838.4619u  824.0520u  824.0520u  838.4619u
  gds        1.9688u    2.2003u    1.9383u    2.0188u    2.0188u    1.9383u
  gmb      289.4597u  287.7624u  209.9908u  206.4000u  206.4000u  209.9908u
  cdtot    186.7865f  198.5578f   67.9413f   72.9384f   72.9384f   67.9413f
  cgtot      2.0396p    2.0409p  851.2019f  851.6821f  851.6821f  851.2019f
  cstot      2.3587p    2.3580p  902.4458f  902.7424f  902.7424f  902.4458f
  cbtot    973.7845f  984.0471f  399.5026f  404.4459f  404.4459f  399.5026f
  cgs        1.7975p    1.7984p  689.3016f  689.8659f  689.8659f  689.3016f
  cgd       66.6359f   67.4074f   27.7270f   27.7678f   27.7678f   27.7270f



 subckt   x1.xi45    x1.xi45    x1.xi49    x1.xi49    x1.xi49    x1.xi49   
 element  2:mtail1   2:mtail2   3:mbias    3:m1       3:m2       3:m3      
 model    0:n18      0:n18      0:n18      0:n18      0:n18      0:n18     
 region     Saturati   Saturati   Saturati   Saturati   Saturati   Saturati
  id        98.2409u   98.2409u  100.0000u   97.7536u   97.7536u   97.7536u
  ibs     -1.337e-19 -1.337e-19 -1.360e-19  -76.7802a  -76.7802a -1.330e-19
  ibd      -20.7232a  -20.7232a  -38.8362a -454.8365a -454.8365a  -20.7217a
  vgs      581.4676m  581.4676m  581.4676m  598.0809m  598.0809m  581.4676m
  vds      339.3166m  339.3166m  581.4676m  598.0809m  598.0809m  301.7968m
  vbs        0.         0.         0.      -301.7968m -301.7968m    0.     
  vth      412.5933m  412.5933m  412.5916m  486.4165m  486.4165m  412.5935m
  vdsat    169.3387m  169.3387m  169.3377m  132.3241m  132.3241m  169.3392m
  vod      168.8743m  168.8743m  168.8760m  111.6643m  111.6643m  168.8741m
  beta       6.8061m    6.8061m    6.8061m   12.7436m   12.7436m    6.8061m
  gam eff  773.0804m  773.0804m  773.0806m  788.7775m  788.7775m  773.0804m
  gm       991.0903u  991.0903u    1.0117m    1.3176m    1.3176m  983.8435u
  gds       11.4112u   11.4112u    5.2290u    3.9061u    3.9061u   14.9670u
  gmb      294.0396u  294.0396u  300.0504u  334.8015u  334.8015u  291.9301u
  cdtot     23.6369f   23.6369f   21.6401f   76.6370f   76.6370f   24.3340f
  cgtot    138.6602f  138.6602f  138.2412f  926.4862f  926.4862f  138.8747f
  cstot    159.3312f  159.3312f  159.4950f    1.0164p    1.0164p  159.2722f
  cbtot     79.8717f   79.8717f   78.5870f  415.0231f  415.0231f   80.1296f
  cgs      116.1931f  116.1931f  115.9883f  783.4692f  783.4692f  116.2663f
  cgd        7.7656f    7.7656f    7.4300f   27.9928f   27.9928f    7.9689f



 subckt   x1.xi49    x1.xi49    x1.xi49    x1.xi49    x1.xi49    x1.xi49   
 element  3:m4       3:m5       3:m6       3:m7       3:m8       3:m9      
 model    0:n18      0:p18      0:p18      0:p18      0:n18      0:n18     
 region     Saturati   Saturati   Saturati   Saturati   Saturati   Saturati
  id        97.7536u  -97.7536u  -97.7536u  -97.1527u   49.6646u   48.5763u
  ibs     -1.330e-19  3.689e-19  3.689e-19  3.666e-19  -76.7810a  -76.7810a
  ibd      -20.7217a   74.4808a   74.4808a   67.8020a   -3.4887n   -2.6098p
  vgs      581.4676m -606.4417m -606.4417m -606.4417m  560.5609m  560.6832m
  vds      301.7968m -900.1223m -900.1223m -606.4417m    1.4607   854.2415m
  vbs        0.         0.         0.         0.      -339.3168m -339.3168m
  vth      412.5935m -412.9211m -412.9211m -412.9208m  496.1390m  496.1386m
  vdsat    169.3392m -186.7620m -186.7620m -186.7629m  100.3450m  100.4239m
  vod      168.8741m -193.5206m -193.5206m -193.5209m   64.4218m   64.5446m
  beta       6.8061m    5.5146m    5.5146m    5.5146m   12.7809m   12.7808m
  gam eff  773.0804m  575.5484m  575.5484m  575.5484m  790.4800m  790.4799m
  gm       983.8435u  900.9047u  900.9047u  895.8982u  838.4649u  824.0491u
  gds       14.9670u    1.9688u    1.9688u    2.2003u    1.9384u    2.0188u
  gmb      291.9301u  289.4590u  289.4590u  287.7617u  209.9916u  206.3993u
  cdtot     24.3340f  186.7865f  186.7865f  198.5578f   67.9413f   72.9384f
  cgtot    138.8747f    2.0396p    2.0396p    2.0409p  851.2026f  851.6814f
  cstot    159.2722f    2.3587p    2.3587p    2.3580p  902.4468f  902.7414f
  cbtot     80.1296f  973.7845f  973.7845f  984.0471f  399.5026f  404.4458f
  cgs      116.2663f    1.7975p    1.7975p    1.7984p  689.3025f  689.8651f
  cgd        7.9689f   66.6359f   66.6359f   67.4074f   27.7270f   27.7678f



 subckt   x1.xi49    x1.xi49    x1.xi49    x1.xi49    x1.xi46    x1.xi46   
 element  3:m10      3:m11      3:mtail1   3:mtail2   4:mbias    4:m1      
 model    0:n18      0:n18      0:n18      0:n18      0:n18      0:n18     
 region     Saturati   Saturati   Saturati   Saturati   Saturati   Saturati
  id        48.5763u   49.6646u   98.2409u   98.2409u  100.0000u   97.7536u
  ibs      -76.7810a  -76.7810a -1.337e-19 -1.337e-19 -1.360e-19  -76.7802a
  ibd       -2.6098p   -3.4887n  -20.7232a  -20.7232a  -38.8362a -454.8457a
  vgs      560.6832m  560.5609m  581.4676m  581.4676m  581.4676m  598.0807m
  vds      854.2415m    1.4607   339.3168m  339.3168m  581.4676m  598.0813m
  vbs     -339.3168m -339.3168m    0.         0.         0.      -301.7963m
  vth      496.1386m  496.1390m  412.5933m  412.5933m  412.5916m  486.4164m
  vdsat    100.4239m  100.3450m  169.3387m  169.3387m  169.3377m  132.3241m
  vod       64.5446m   64.4218m  168.8743m  168.8743m  168.8760m  111.6643m
  beta      12.7808m   12.7809m    6.8061m    6.8061m    6.8061m   12.7436m
  gam eff  790.4799m  790.4800m  773.0804m  773.0804m  773.0806m  788.7775m
  gm       824.0491u  838.4649u  991.0903u  991.0903u    1.0117m    1.3176m
  gds        2.0188u    1.9384u   11.4112u   11.4112u    5.2290u    3.9061u
  gmb      206.3993u  209.9916u  294.0396u  294.0396u  300.0504u  334.8016u
  cdtot     72.9384f   67.9413f   23.6369f   23.6369f   21.6401f   76.6370f
  cgtot    851.6814f  851.2026f  138.6602f  138.6602f  138.2412f  926.4862f
  cstot    902.7414f  902.4468f  159.3312f  159.3312f  159.4950f    1.0164p
  cbtot    404.4458f  399.5026f   79.8717f   79.8717f   78.5870f  415.0232f
  cgs      689.8651f  689.3025f  116.1931f  116.1931f  115.9883f  783.4692f
  cgd       27.7678f   27.7270f    7.7656f    7.7656f    7.4300f   27.9928f



 subckt   x1.xi46    x1.xi46    x1.xi46    x1.xi46    x1.xi46    x1.xi46   
 element  4:m2       4:m3       4:m4       4:m5       4:m6       4:m7      
 model    0:n18      0:n18      0:n18      0:p18      0:p18      0:p18     
 region     Saturati   Saturati   Saturati   Saturati   Saturati   Saturati
  id        97.7536u   97.7536u   97.7536u  -97.7536u  -97.7536u  -97.1527u
  ibs      -76.7802a -1.330e-19 -1.330e-19  3.689e-19  3.689e-19  3.666e-19
  ibd     -454.8457a  -20.7217a  -20.7217a   74.4808a   74.4808a   67.8020a
  vgs      598.0807m  581.4676m  581.4676m -606.4417m -606.4417m -606.4417m
  vds      598.0813m  301.7963m  301.7963m -900.1223m -900.1223m -606.4417m
  vbs     -301.7963m    0.         0.         0.         0.         0.     
  vth      486.4164m  412.5935m  412.5935m -412.9211m -412.9211m -412.9208m
  vdsat    132.3241m  169.3392m  169.3392m -186.7620m -186.7620m -186.7629m
  vod      111.6643m  168.8741m  168.8741m -193.5206m -193.5206m -193.5209m
  beta      12.7436m    6.8061m    6.8061m    5.5146m    5.5146m    5.5146m
  gam eff  788.7775m  773.0804m  773.0804m  575.5484m  575.5484m  575.5484m
  gm         1.3176m  983.8434u  983.8434u  900.9047u  900.9047u  895.8982u
  gds        3.9061u   14.9670u   14.9670u    1.9688u    1.9688u    2.2003u
  gmb      334.8016u  291.9301u  291.9301u  289.4590u  289.4590u  287.7617u
  cdtot     76.6370f   24.3340f   24.3340f  186.7865f  186.7865f  198.5578f
  cgtot    926.4862f  138.8747f  138.8747f    2.0396p    2.0396p    2.0409p
  cstot      1.0164p  159.2722f  159.2722f    2.3587p    2.3587p    2.3580p
  cbtot    415.0232f   80.1296f   80.1296f  973.7845f  973.7845f  984.0471f
  cgs      783.4692f  116.2663f  116.2663f    1.7975p    1.7975p    1.7984p
  cgd       27.9928f    7.9689f    7.9689f   66.6359f   66.6359f   67.4074f



 subckt   x1.xi46    x1.xi46    x1.xi46    x1.xi46    x1.xi46    x1.xi46   
 element  4:m8       4:m9       4:m10      4:m11      4:mtail1   4:mtail2  
 model    0:n18      0:n18      0:n18      0:n18      0:n18      0:n18     
 region     Saturati   Saturati   Saturati   Saturati   Saturati   Saturati
  id        49.6646u   48.5763u   48.5763u   49.6646u   98.2409u   98.2409u
  ibs      -76.7810a  -76.7810a  -76.7810a  -76.7810a -1.337e-19 -1.337e-19
  ibd       -3.4887n   -2.6098p   -2.6098p   -3.4887n  -20.7232a  -20.7232a
  vgs      560.5609m  560.6832m  560.6832m  560.5609m  581.4676m  581.4676m
  vds        1.4607   854.2415m  854.2415m    1.4607   339.3168m  339.3168m
  vbs     -339.3168m -339.3168m -339.3168m -339.3168m    0.         0.     
  vth      496.1390m  496.1386m  496.1386m  496.1390m  412.5933m  412.5933m
  vdsat    100.3450m  100.4239m  100.4239m  100.3450m  169.3387m  169.3387m
  vod       64.4218m   64.5446m   64.5446m   64.4218m  168.8743m  168.8743m
  beta      12.7809m   12.7808m   12.7808m   12.7809m    6.8061m    6.8061m
  gam eff  790.4800m  790.4799m  790.4799m  790.4800m  773.0804m  773.0804m
  gm       838.4649u  824.0491u  824.0491u  838.4649u  991.0903u  991.0903u
  gds        1.9384u    2.0188u    2.0188u    1.9384u   11.4112u   11.4112u
  gmb      209.9916u  206.3993u  206.3993u  209.9916u  294.0396u  294.0396u
  cdtot     67.9413f   72.9384f   72.9384f   67.9413f   23.6369f   23.6369f
  cgtot    851.2026f  851.6814f  851.6814f  851.2026f  138.6602f  138.6602f
  cstot    902.4468f  902.7414f  902.7414f  902.4468f  159.3312f  159.3312f
  cbtot    399.5026f  404.4458f  404.4458f  399.5026f   79.8717f   79.8717f
  cgs      689.3025f  689.8651f  689.8651f  689.3025f  116.1931f  116.1931f
  cgd       27.7270f   27.7678f   27.7678f   27.7270f    7.7656f    7.7656f



 subckt   x1.xi47    x1.xi47    x1.xi47    x1.xi47    x1.xi47    x1.xi47   
 element  5:mbias    5:m1       5:m2       5:m3       5:m4       5:m5      
 model    0:n18      0:n18      0:n18      0:n18      0:n18      0:p18     
 region     Saturati   Saturati   Saturati   Saturati   Saturati   Saturati
  id       100.0000u   97.7536u   97.7536u   97.7536u   97.7536u  -97.7536u
  ibs     -1.360e-19  -76.7802a  -76.7802a -1.330e-19 -1.330e-19  3.689e-19
  ibd      -38.8362a -454.8363a -454.8363a  -20.7217a  -20.7217a   74.4808a
  vgs      581.4676m  598.0809m  598.0809m  581.4676m  581.4676m -606.4417m
  vds      581.4676m  598.0809m  598.0809m  301.7968m  301.7968m -900.1223m
  vbs        0.      -301.7968m -301.7968m    0.         0.         0.     
  vth      412.5916m  486.4165m  486.4165m  412.5935m  412.5935m -412.9211m
  vdsat    169.3377m  132.3241m  132.3241m  169.3392m  169.3392m -186.7620m
  vod      168.8760m  111.6643m  111.6643m  168.8741m  168.8741m -193.5206m
  beta       6.8061m   12.7436m   12.7436m    6.8061m    6.8061m    5.5146m
  gam eff  773.0806m  788.7775m  788.7775m  773.0804m  773.0804m  575.5484m
  gm         1.0117m    1.3176m    1.3176m  983.8435u  983.8435u  900.9048u
  gds        5.2290u    3.9061u    3.9061u   14.9670u   14.9670u    1.9688u
  gmb      300.0504u  334.8015u  334.8015u  291.9301u  291.9301u  289.4590u
  cdtot     21.6401f   76.6370f   76.6370f   24.3340f   24.3340f  186.7865f
  cgtot    138.2412f  926.4862f  926.4862f  138.8747f  138.8747f    2.0396p
  cstot    159.4950f    1.0164p    1.0164p  159.2722f  159.2722f    2.3587p
  cbtot     78.5870f  415.0231f  415.0231f   80.1296f   80.1296f  973.7845f
  cgs      115.9883f  783.4692f  783.4692f  116.2663f  116.2663f    1.7975p
  cgd        7.4300f   27.9928f   27.9928f    7.9689f    7.9689f   66.6359f



 subckt   x1.xi47    x1.xi47    x1.xi47    x1.xi47    x1.xi47    x1.xi47   
 element  5:m6       5:m7       5:m8       5:m9       5:m10      5:m11     
 model    0:p18      0:p18      0:n18      0:n18      0:n18      0:n18     
 region     Saturati   Saturati   Saturati   Saturati   Saturati   Saturati
  id       -97.7536u  -97.1527u   49.6646u   48.5763u   48.5763u   49.6646u
  ibs      3.689e-19  3.666e-19  -76.7810a  -76.7810a  -76.7810a  -76.7810a
  ibd       74.4808a   67.8020a   -3.4887n   -2.6098p   -2.6098p   -3.4887n
  vgs     -606.4417m -606.4417m  560.5609m  560.6832m  560.6832m  560.5609m
  vds     -900.1223m -606.4417m    1.4607   854.2415m  854.2415m    1.4607 
  vbs        0.         0.      -339.3168m -339.3168m -339.3168m -339.3168m
  vth     -412.9211m -412.9208m  496.1390m  496.1386m  496.1386m  496.1390m
  vdsat   -186.7620m -186.7629m  100.3450m  100.4239m  100.4239m  100.3450m
  vod     -193.5206m -193.5209m   64.4218m   64.5446m   64.5446m   64.4218m
  beta       5.5146m    5.5146m   12.7809m   12.7808m   12.7808m   12.7809m
  gam eff  575.5484m  575.5484m  790.4800m  790.4799m  790.4799m  790.4800m
  gm       900.9048u  895.8983u  838.4649u  824.0491u  824.0491u  838.4649u
  gds        1.9688u    2.2003u    1.9384u    2.0188u    2.0188u    1.9384u
  gmb      289.4590u  287.7617u  209.9915u  206.3993u  206.3993u  209.9915u
  cdtot    186.7865f  198.5578f   67.9413f   72.9384f   72.9384f   67.9413f
  cgtot      2.0396p    2.0409p  851.2025f  851.6814f  851.6814f  851.2025f
  cstot      2.3587p    2.3580p  902.4468f  902.7414f  902.7414f  902.4468f
  cbtot    973.7845f  984.0471f  399.5026f  404.4458f  404.4458f  399.5026f
  cgs        1.7975p    1.7984p  689.3025f  689.8651f  689.8651f  689.3025f
  cgd       66.6359f   67.4074f   27.7270f   27.7678f   27.7678f   27.7270f



 subckt   x1.xi47    x1.xi47    x1.xi1     x1.xi1     x1.xi1     x1.xi1    
 element  5:mtail1   5:mtail2   6:mbias    6:m1       6:m2       6:m3      
 model    0:n18      0:n18      0:n18      0:n18      0:n18      0:n18     
 region     Saturati   Saturati   Saturati   Saturati   Saturati   Saturati
  id        98.2409u   98.2409u  100.0000u   97.7551u   97.7551u   97.7551u
  ibs     -1.337e-19 -1.337e-19 -1.360e-19  -76.7802a  -76.7802a -1.330e-19
  ibd      -20.7232a  -20.7232a  -38.8362a -452.8782a -452.8782a  -20.7218a
  vgs      581.4676m  581.4676m  581.4676m  598.1068m  598.1068m  581.4676m
  vds      339.3168m  339.3168m  581.4676m  597.9838m  597.9838m  301.8932m
  vbs        0.         0.         0.      -301.8932m -301.8932m    0.     
  vth      412.5933m  412.5933m  412.5916m  486.4418m  486.4418m  412.5935m
  vdsat    169.3387m  169.3387m  169.3377m  132.3257m  132.3257m  169.3392m
  vod      168.8743m  168.8743m  168.8760m  111.6649m  111.6649m  168.8741m
  beta       6.8061m    6.8061m    6.8061m   12.7436m   12.7436m    6.8061m
  gam eff  773.0804m  773.0804m  773.0806m  788.7819m  788.7819m  773.0804m
  gm       991.0903u  991.0903u    1.0117m    1.3176m    1.3176m  983.8661u
  gds       11.4112u   11.4112u    5.2290u    3.9065u    3.9065u   14.9548u
  gmb      294.0396u  294.0396u  300.0504u  334.7898u  334.7898u  291.9367u
  cdtot     23.6369f   23.6369f   21.6401f   76.6373f   76.6373f   24.3319f
  cgtot    138.6602f  138.6602f  138.2412f  926.4853f  926.4853f  138.8740f
  cstot    159.3312f  159.3312f  159.4950f    1.0164p    1.0164p  159.2724f
  cbtot     79.8717f   79.8717f   78.5870f  415.0096f  415.0096f   80.1289f
  cgs      116.1931f  116.1931f  115.9883f  783.4708f  783.4708f  116.2661f
  cgd        7.7656f    7.7656f    7.4300f   27.9929f   27.9929f    7.9683f



 subckt   x1.xi1     x1.xi1     x1.xi1     x1.xi1     x1.xi1     x1.xi1    
 element  6:m4       6:m5       6:m6       6:m7       6:m8       6:m9      
 model    0:n18      0:p18      0:p18      0:p18      0:n18      0:n18     
 region     Saturati   Saturati   Saturati   Saturati   Saturati   Saturati
  id        97.7551u  -97.7541u  -97.7541u  -97.1532u   49.6643u   48.5766u
  ibs     -1.330e-19  3.689e-19  3.689e-19  3.666e-19  -76.7810a  -76.7810a
  ibd      -20.7218a   74.4809a   74.4809a   67.8020a   -3.4887n   -2.6098p
  vgs      581.4676m -606.4422m -606.4422m -606.4422m  560.5605m  560.6834m
  vds      301.8932m -900.1229m -900.1229m -606.4422m    1.4607   854.2412m
  vbs        0.         0.         0.         0.      -339.3166m -339.3166m
  vth      412.5935m -412.9211m -412.9211m -412.9208m  496.1390m  496.1385m
  vdsat    169.3392m -186.7624m -186.7624m -186.7633m  100.3449m  100.4241m
  vod      168.8741m -193.5211m -193.5211m -193.5214m   64.4216m   64.5449m
  beta       6.8061m    5.5146m    5.5146m    5.5146m   12.7809m   12.7808m
  gam eff  773.0804m  575.5484m  575.5484m  575.5484m  790.4800m  790.4799m
  gm       983.8661u  900.9070u  900.9070u  895.9005u  838.4619u  824.0520u
  gds       14.9548u    1.9688u    1.9688u    2.2003u    1.9383u    2.0188u
  gmb      291.9367u  289.4597u  289.4597u  287.7624u  209.9908u  206.4000u
  cdtot     24.3319f  186.7865f  186.7865f  198.5578f   67.9413f   72.9384f
  cgtot    138.8740f    2.0396p    2.0396p    2.0409p  851.2019f  851.6821f
  cstot    159.2724f    2.3587p    2.3587p    2.3580p  902.4458f  902.7424f
  cbtot     80.1289f  973.7845f  973.7845f  984.0471f  399.5026f  404.4459f
  cgs      116.2661f    1.7975p    1.7975p    1.7984p  689.3016f  689.8659f
  cgd        7.9683f   66.6359f   66.6359f   67.4074f   27.7270f   27.7678f



 subckt   x1.xi1     x1.xi1     x1.xi1     x1.xi1     x1.xi44    x1.xi44   
 element  6:m10      6:m11      6:mtail1   6:mtail2   7:mbias    7:m1      
 model    0:n18      0:n18      0:n18      0:n18      0:n18      0:n18     
 region     Saturati   Saturati   Saturati   Saturati   Saturati   Saturati
  id        48.5766u   49.6643u   98.2409u   98.2409u  100.0000u   97.7536u
  ibs      -76.7810a  -76.7810a -1.337e-19 -1.337e-19 -1.360e-19  -76.7802a
  ibd       -2.6098p   -3.4887n  -20.7232a  -20.7232a  -38.8362a -454.8248a
  vgs      560.6834m  560.5605m  581.4676m  581.4676m  581.4676m  598.0809m
  vds      854.2412m    1.4607   339.3166m  339.3166m  581.4676m  598.0803m
  vbs     -339.3166m -339.3166m    0.         0.         0.      -301.7968m
  vth      496.1385m  496.1390m  412.5933m  412.5933m  412.5916m  486.4165m
  vdsat    100.4241m  100.3449m  169.3387m  169.3387m  169.3377m  132.3241m
  vod       64.5449m   64.4216m  168.8743m  168.8743m  168.8760m  111.6643m
  beta      12.7808m   12.7809m    6.8061m    6.8061m    6.8061m   12.7436m
  gam eff  790.4799m  790.4800m  773.0804m  773.0804m  773.0806m  788.7775m
  gm       824.0520u  838.4619u  991.0903u  991.0903u    1.0117m    1.3176m
  gds        2.0188u    1.9383u   11.4112u   11.4112u    5.2290u    3.9061u
  gmb      206.4000u  209.9908u  294.0396u  294.0396u  300.0504u  334.8015u
  cdtot     72.9384f   67.9413f   23.6369f   23.6369f   21.6401f   76.6370f
  cgtot    851.6821f  851.2019f  138.6602f  138.6602f  138.2412f  926.4862f
  cstot    902.7424f  902.4458f  159.3312f  159.3312f  159.4950f    1.0164p
  cbtot    404.4459f  399.5026f   79.8717f   79.8717f   78.5870f  415.0231f
  cgs      689.8659f  689.3016f  116.1931f  116.1931f  115.9883f  783.4692f
  cgd       27.7678f   27.7270f    7.7656f    7.7656f    7.4300f   27.9928f



 subckt   x1.xi44    x1.xi44    x1.xi44    x1.xi44    x1.xi44    x1.xi44   
 element  7:m2       7:m3       7:m4       7:m5       7:m6       7:m7      
 model    0:n18      0:n18      0:n18      0:p18      0:p18      0:p18     
 region     Saturati   Saturati   Saturati   Saturati   Saturati   Saturati
  id        97.7536u   97.7536u   97.7536u  -97.7541u  -97.7541u  -97.1532u
  ibs      -76.7802a -1.330e-19 -1.330e-19  3.689e-19  3.689e-19  3.666e-19
  ibd     -454.8248a  -20.7217a  -20.7217a   74.4809a   74.4809a   67.8020a
  vgs      598.0809m  581.4676m  581.4676m -606.4422m -606.4422m -606.4422m
  vds      598.0803m  301.7968m  301.7968m -900.1229m -900.1229m -606.4422m
  vbs     -301.7968m    0.         0.         0.         0.         0.     
  vth      486.4165m  412.5935m  412.5935m -412.9211m -412.9211m -412.9208m
  vdsat    132.3241m  169.3392m  169.3392m -186.7624m -186.7624m -186.7633m
  vod      111.6643m  168.8741m  168.8741m -193.5211m -193.5211m -193.5214m
  beta      12.7436m    6.8061m    6.8061m    5.5146m    5.5146m    5.5146m
  gam eff  788.7775m  773.0804m  773.0804m  575.5484m  575.5484m  575.5484m
  gm         1.3176m  983.8435u  983.8435u  900.9070u  900.9070u  895.9005u
  gds        3.9061u   14.9670u   14.9670u    1.9688u    1.9688u    2.2003u
  gmb      334.8015u  291.9301u  291.9301u  289.4597u  289.4597u  287.7624u
  cdtot     76.6370f   24.3340f   24.3340f  186.7865f  186.7865f  198.5578f
  cgtot    926.4862f  138.8747f  138.8747f    2.0396p    2.0396p    2.0409p
  cstot      1.0164p  159.2722f  159.2722f    2.3587p    2.3587p    2.3580p
  cbtot    415.0231f   80.1296f   80.1296f  973.7845f  973.7845f  984.0471f
  cgs      783.4692f  116.2663f  116.2663f    1.7975p    1.7975p    1.7984p
  cgd       27.9928f    7.9689f    7.9689f   66.6359f   66.6359f   67.4074f



 subckt   x1.xi44    x1.xi44    x1.xi44    x1.xi44    x1.xi44    x1.xi44   
 element  7:m8       7:m9       7:m10      7:m11      7:mtail1   7:mtail2  
 model    0:n18      0:n18      0:n18      0:n18      0:n18      0:n18     
 region     Saturati   Saturati   Saturati   Saturati   Saturati   Saturati
  id        49.6643u   48.5766u   48.5766u   49.6643u   98.2409u   98.2409u
  ibs      -76.7810a  -76.7810a  -76.7810a  -76.7810a -1.337e-19 -1.337e-19
  ibd       -3.4887n   -2.6098p   -2.6098p   -3.4887n  -20.7232a  -20.7232a
  vgs      560.5605m  560.6834m  560.6834m  560.5605m  581.4676m  581.4676m
  vds        1.4607   854.2412m  854.2412m    1.4607   339.3166m  339.3166m
  vbs     -339.3166m -339.3166m -339.3166m -339.3166m    0.         0.     
  vth      496.1390m  496.1385m  496.1385m  496.1390m  412.5933m  412.5933m
  vdsat    100.3449m  100.4241m  100.4241m  100.3449m  169.3387m  169.3387m
  vod       64.4216m   64.5449m   64.5449m   64.4216m  168.8743m  168.8743m
  beta      12.7809m   12.7808m   12.7808m   12.7809m    6.8061m    6.8061m
  gam eff  790.4800m  790.4799m  790.4799m  790.4800m  773.0804m  773.0804m
  gm       838.4619u  824.0520u  824.0520u  838.4619u  991.0903u  991.0903u
  gds        1.9383u    2.0188u    2.0188u    1.9383u   11.4112u   11.4112u
  gmb      209.9908u  206.4000u  206.4000u  209.9908u  294.0396u  294.0396u
  cdtot     67.9413f   72.9384f   72.9384f   67.9413f   23.6369f   23.6369f
  cgtot    851.2019f  851.6821f  851.6821f  851.2019f  138.6602f  138.6602f
  cstot    902.4458f  902.7424f  902.7424f  902.4458f  159.3312f  159.3312f
  cbtot    399.5026f  404.4459f  404.4459f  399.5026f   79.8717f   79.8717f
  cgs      689.3016f  689.8659f  689.8659f  689.3016f  116.1931f  116.1931f
  cgd       27.7270f   27.7678f   27.7678f   27.7270f    7.7656f    7.7656f



 subckt   x1.xi48    x1.xi48    x1.xi48    x1.xi48    x1.xi48    x1.xi48   
 element  8:mbias    8:m1       8:m2       8:m3       8:m4       8:m5      
 model    0:n18      0:n18      0:n18      0:n18      0:n18      0:p18     
 region     Saturati   Saturati   Saturati   Saturati   Saturati   Saturati
  id       100.0000u   97.7536u   97.7536u   97.7536u   97.7536u  -97.7536u
  ibs     -1.360e-19  -76.7802a  -76.7802a -1.330e-19 -1.330e-19  3.689e-19
  ibd      -38.8362a -454.8364a -454.8364a  -20.7217a  -20.7217a   74.4808a
  vgs      581.4676m  598.0809m  598.0809m  581.4676m  581.4676m -606.4417m
  vds      581.4676m  598.0809m  598.0809m  301.7968m  301.7968m -900.1223m
  vbs        0.      -301.7968m -301.7968m    0.         0.         0.     
  vth      412.5916m  486.4165m  486.4165m  412.5935m  412.5935m -412.9211m
  vdsat    169.3377m  132.3241m  132.3241m  169.3392m  169.3392m -186.7620m
  vod      168.8760m  111.6643m  111.6643m  168.8741m  168.8741m -193.5206m
  beta       6.8061m   12.7436m   12.7436m    6.8061m    6.8061m    5.5146m
  gam eff  773.0806m  788.7775m  788.7775m  773.0804m  773.0804m  575.5484m
  gm         1.0117m    1.3176m    1.3176m  983.8435u  983.8435u  900.9048u
  gds        5.2290u    3.9061u    3.9061u   14.9670u   14.9670u    1.9688u
  gmb      300.0504u  334.8015u  334.8015u  291.9301u  291.9301u  289.4590u
  cdtot     21.6401f   76.6370f   76.6370f   24.3340f   24.3340f  186.7865f
  cgtot    138.2412f  926.4862f  926.4862f  138.8747f  138.8747f    2.0396p
  cstot    159.4950f    1.0164p    1.0164p  159.2722f  159.2722f    2.3587p
  cbtot     78.5870f  415.0231f  415.0231f   80.1296f   80.1296f  973.7845f
  cgs      115.9883f  783.4692f  783.4692f  116.2663f  116.2663f    1.7975p
  cgd        7.4300f   27.9928f   27.9928f    7.9689f    7.9689f   66.6359f



 subckt   x1.xi48    x1.xi48    x1.xi48    x1.xi48    x1.xi48    x1.xi48   
 element  8:m6       8:m7       8:m8       8:m9       8:m10      8:m11     
 model    0:p18      0:p18      0:n18      0:n18      0:n18      0:n18     
 region     Saturati   Saturati   Saturati   Saturati   Saturati   Saturati
  id       -97.7536u  -97.1527u   49.6646u   48.5763u   48.5763u   49.6646u
  ibs      3.689e-19  3.666e-19  -76.7810a  -76.7810a  -76.7810a  -76.7810a
  ibd       74.4808a   67.8020a   -3.4887n   -2.6098p   -2.6098p   -3.4887n
  vgs     -606.4417m -606.4417m  560.5609m  560.6832m  560.6832m  560.5609m
  vds     -900.1223m -606.4417m    1.4607   854.2415m  854.2415m    1.4607 
  vbs        0.         0.      -339.3168m -339.3168m -339.3168m -339.3168m
  vth     -412.9211m -412.9208m  496.1390m  496.1386m  496.1386m  496.1390m
  vdsat   -186.7620m -186.7629m  100.3450m  100.4239m  100.4239m  100.3450m
  vod     -193.5206m -193.5209m   64.4218m   64.5446m   64.5446m   64.4218m
  beta       5.5146m    5.5146m   12.7809m   12.7808m   12.7808m   12.7809m
  gam eff  575.5484m  575.5484m  790.4800m  790.4799m  790.4799m  790.4800m
  gm       900.9048u  895.8983u  838.4649u  824.0491u  824.0491u  838.4649u
  gds        1.9688u    2.2003u    1.9384u    2.0188u    2.0188u    1.9384u
  gmb      289.4590u  287.7617u  209.9915u  206.3993u  206.3993u  209.9915u
  cdtot    186.7865f  198.5578f   67.9413f   72.9384f   72.9384f   67.9413f
  cgtot      2.0396p    2.0409p  851.2025f  851.6814f  851.6814f  851.2025f
  cstot      2.3587p    2.3580p  902.4468f  902.7414f  902.7414f  902.4468f
  cbtot    973.7845f  984.0471f  399.5026f  404.4458f  404.4458f  399.5026f
  cgs        1.7975p    1.7984p  689.3025f  689.8651f  689.8651f  689.3025f
  cgd       66.6359f   67.4074f   27.7270f   27.7678f   27.7678f   27.7270f



 subckt   x1.xi48    x1.xi48   
 element  8:mtail1   8:mtail2  
 model    0:n18      0:n18     
 region     Saturati   Saturati
  id        98.2409u   98.2409u
  ibs     -1.337e-19 -1.337e-19
  ibd      -20.7232a  -20.7232a
  vgs      581.4676m  581.4676m
  vds      339.3168m  339.3168m
  vbs        0.         0.     
  vth      412.5933m  412.5933m
  vdsat    169.3387m  169.3387m
  vod      168.8743m  168.8743m
  beta       6.8061m    6.8061m
  gam eff  773.0804m  773.0804m
  gm       991.0903u  991.0903u
  gds       11.4112u   11.4112u
  gmb      294.0396u  294.0396u
  cdtot     23.6369f   23.6369f
  cgtot    138.6602f  138.6602f
  cstot    159.3312f  159.3312f
  cbtot     79.8717f   79.8717f
  cgs      116.1931f  116.1931f
  cgd        7.7656f    7.7656f







 ****     small-signal transfer characteristics

      v(vout_i)/vvin_i                         = -190.2054m
      input resistance at             vvin_i   =  1.000e+20
      output resistance at v(vout_i)           =    1.7875k



1****** HSPICE -- F-2011.09 32-BIT (Sep  5 2011) winnt ******                   
 ******  
 .title gm_ac

  ******  noise analysis tnom=  25.000 temp=  27.000 *****

     frequency =  10.0000       hz




 **** resistor squared noise voltages (sq v/hz)




 element     2:r1
       rs    7.4889a    
      1/f    0.         
    total    7.4889a    
       rx    2.0165k    




 element     3:r1
       rs    8.1723a    
      1/f    0.         
    total    8.1723a    
       rx    2.1065k    




 element     4:r1
       rs    8.1723a    
      1/f    0.         
    total    8.1723a    
       rx    2.1065k    




 element     5:r1
       rs    7.9617a    
      1/f    0.         
    total    7.9617a    
       rx    2.0792k    




 element     6:r1
       rs    7.4890a    
      1/f    0.         
    total    7.4890a    
       rx    2.0165k    




 element     7:r1
       rs    7.4889a    
      1/f    0.         
    total    7.4889a    
       rx    2.0165k    




 element     8:r1
       rs   17.8919a    
      1/f    0.         
    total   17.8919a    
       rx    3.1168k    



 **** mosfet squared noise voltages (sq v/hz)




 element     2:mbias
       rd    0.         
       rs  1.282e-26    
       id  2.797e-24    
       rx  501.8982m    
       fn  8.769e-20    
    total  8.769e-20    




 element     2:m1
       rd  9.197e-27    
       rs  1.629e-21    
       id  2.887e-19    
       rx  144.3624     
       fn    1.5319f    
    total    1.5321f    




 element     2:m2
       rd  9.197e-27    
       rs  1.629e-21    
       id  2.887e-19    
       rx  144.3620     
       fn    1.5318f    
    total    1.5321f    




 element     2:m3
       rd  6.629e-24    
       rs  4.948e-20    
       id   11.2955a    
       rx    1.0059k    
       fn  193.0678f    
    total  193.0792f    




 element     2:m4
       rd  6.629e-24    
       rs  4.948e-20    
       id   11.2946a    
       rx    1.0059k    
       fn  193.0526f    
    total  193.0639f    




 element     2:m5
       rd  1.283e-25    
       rs  4.713e-20    
       id   12.6057a    
       rx    1.1509k    
       fn   20.4509f    
    total   20.4635f    




 element     2:m6
       rd  1.283e-25    
       rs  4.713e-20    
       id   12.6066a    
       rx    1.1510k    
       fn   20.4523f    
    total   20.4650f    




 element     2:m7
       rd    0.         
       rs    0.         
       id  1.533e-26    
       rx   40.1160m    
       fn  2.413e-23    
    total  2.414e-23    




 element     2:m8
       rd    0.         
       rs    0.         
       id  3.371e-27    
       rx   19.7771m    
       fn  1.871e-23    
    total  1.871e-23    




 element     2:m9
       rd    0.         
       rs    0.         
       id  3.571e-27    
       rx   20.3389m    
       fn  1.526e-23    
    total  1.527e-23    




 element     2:m10
       rd    0.         
       rs    0.         
       id  3.571e-27    
       rx   20.3389m    
       fn  1.526e-23    
    total  1.527e-23    




 element     2:m11
       rd    0.         
       rs    0.         
       id  3.371e-27    
       rx   19.7771m    
       fn  1.871e-23    
    total  1.871e-23    




 element     2:mtail1
       rd    0.         
       rs    0.         
       id  4.354e-27    
       rx   19.7671m    
       fn  8.490e-23    
    total  8.491e-23    




 element     2:mtail2
       rd    0.         
       rs    0.         
       id  4.354e-27    
       rx   19.7671m    
       fn  8.490e-23    
    total  8.491e-23    




 element     3:mbias
       rd    0.         
       rs  1.282e-26    
       id  2.797e-24    
       rx  501.8982m    
       fn  8.769e-20    
    total  8.769e-20    




 element     3:m1
       rd  1.164e-26    
       rs  1.776e-21    
       id  3.149e-19    
       rx  150.7673     
       fn    1.6708f    
    total    1.6711f    




 element     3:m2
       rd  1.164e-26    
       rs  1.778e-21    
       id  3.152e-19    
       rx  150.8434     
       fn    1.6725f    
    total    1.6728f    




 element     3:m3
       rd  7.187e-24    
       rs  5.357e-20    
       id   12.2273a    
       rx    1.0466k    
       fn  208.9947f    
    total  209.0070f    




 element     3:m4
       rd  7.315e-24    
       rs  5.443e-20    
       id   12.4247a    
       rx    1.0550k    
       fn  212.3695f    
    total  212.3820f    




 element     3:m5
       rd  1.472e-25    
       rs  5.180e-20    
       id   13.8539a    
       rx    1.2066k    
       fn   22.4758f    
    total   22.4897f    




 element     3:m6
       rd  1.472e-25    
       rs  5.107e-20    
       id   13.6595a    
       rx    1.1981k    
       fn   22.1603f    
    total   22.1740f    




 element     3:m7
       rd    0.         
       rs  2.545e-24    
       id  6.888e-22    
       rx    8.5039     
       fn    1.0842a    
    total    1.0849a    




 element     3:m8
       rd    0.         
       rs  5.525e-25    
       id  1.515e-22    
       rx    4.1924     
       fn  8.408e-19    
    total  8.410e-19    




 element     3:m9
       rd    0.         
       rs  5.646e-25    
       id  1.605e-22    
       rx    4.3115     
       fn  6.859e-19    
    total  6.861e-19    




 element     3:m10
       rd    0.         
       rs  5.646e-25    
       id  1.605e-22    
       rx    4.3115     
       fn  6.859e-19    
    total  6.861e-19    




 element     3:m11
       rd    0.         
       rs  5.525e-25    
       id  1.515e-22    
       rx    4.1924     
       fn  8.408e-19    
    total  8.410e-19    




 element     3:mtail1
       rd    0.         
       rs  8.664e-25    
       id  1.957e-22    
       rx    4.1903     
       fn    3.8153a    
    total    3.8155a    




 element     3:mtail2
       rd    0.         
       rs  8.664e-25    
       id  1.957e-22    
       rx    4.1903     
       fn    3.8153a    
    total    3.8155a    




 element     4:mbias
       rd    0.         
       rs  1.282e-26    
       id  2.797e-24    
       rx  501.8982m    
       fn  8.769e-20    
    total  8.769e-20    




 element     4:m1
       rd  1.164e-26    
       rs  1.776e-21    
       id  3.149e-19    
       rx  150.7673     
       fn    1.6708f    
    total    1.6711f    




 element     4:m2
       rd  1.164e-26    
       rs  1.778e-21    
       id  3.152e-19    
       rx  150.8434     
       fn    1.6725f    
    total    1.6728f    




 element     4:m3
       rd  7.251e-24    
       rs  5.357e-20    
       id   12.2273a    
       rx    1.0466k    
       fn  208.9943f    
    total  209.0065f    




 element     4:m4
       rd  7.315e-24    
       rs  5.443e-20    
       id   12.4247a    
       rx    1.0550k    
       fn  212.3691f    
    total  212.3816f    




 element     4:m5
       rd  1.472e-25    
       rs  5.180e-20    
       id   13.8539a    
       rx    1.2066k    
       fn   22.4758f    
    total   22.4897f    




 element     4:m6
       rd  1.472e-25    
       rs  5.107e-20    
       id   13.6595a    
       rx    1.1981k    
       fn   22.1603f    
    total   22.1740f    




 element     4:m7
       rd    0.         
       rs  2.545e-24    
       id  6.888e-22    
       rx    8.5039     
       fn    1.0842a    
    total    1.0849a    




 element     4:m8
       rd    0.         
       rs  5.525e-25    
       id  1.515e-22    
       rx    4.1924     
       fn  8.408e-19    
    total  8.410e-19    




 element     4:m9
       rd    0.         
       rs  5.646e-25    
       id  1.605e-22    
       rx    4.3115     
       fn  6.859e-19    
    total  6.861e-19    




 element     4:m10
       rd    0.         
       rs  5.646e-25    
       id  1.605e-22    
       rx    4.3115     
       fn  6.859e-19    
    total  6.861e-19    




 element     4:m11
       rd    0.         
       rs  5.525e-25    
       id  1.515e-22    
       rx    4.1924     
       fn  8.408e-19    
    total  8.410e-19    




 element     4:mtail1
       rd    0.         
       rs  8.664e-25    
       id  1.957e-22    
       rx    4.1903     
       fn    3.8153a    
    total    3.8155a    




 element     4:mtail2
       rd    0.         
       rs  8.664e-25    
       id  1.957e-22    
       rx    4.1903     
       fn    3.8153a    
    total    3.8155a    




 element     5:mbias
       rd    0.         
       rs  1.282e-26    
       id  2.797e-24    
       rx  501.8982m    
       fn  8.769e-20    
    total  8.769e-20    




 element     5:m1
       rd  9.197e-27    
       rs  1.858e-21    
       id  3.294e-19    
       rx  154.1979     
       fn    1.7477f    
    total    1.7480f    




 element     5:m2
       rd  8.083e-27    
       rs  1.610e-21    
       id  2.853e-19    
       rx  143.5009     
       fn    1.5136f    
    total    1.5139f    




 element     5:m3
       rd  1.748e-23    
       rs  1.298e-19    
       id   29.6241a    
       rx    1.6291k    
       fn  506.3490f    
    total  506.3788f    




 element     5:m4
       rd  1.306e-24    
       rs  9.696e-21    
       id    2.2134a    
       rx  445.2934     
       fn   37.8325f    
    total   37.8347f    




 element     5:m5
       rd  3.206e-26    
       rs  1.235e-20    
       id    3.3034a    
       rx  589.1709     
       fn    5.3592f    
    total    5.3626f    




 element     5:m6
       rd  3.025e-25    
       rs  1.133e-19    
       id   30.2964a    
       rx    1.7843k    
       fn   49.1511f    
    total   49.1815f    




 element     5:m7
       rd  1.781e-25    
       rs  5.035e-20    
       id   13.6260a    
       rx    1.1961k    
       fn   21.4484f    
    total   21.4621f    




 element     5:m8
       rd  3.722e-26    
       rs  1.093e-20    
       id    2.9964a    
       rx  589.6688     
       fn   16.6340f    
    total   16.6370f    




 element     5:m9
       rd  4.656e-26    
       rs  1.117e-20    
       id    3.1749a    
       rx  606.4214     
       fn   13.5698f    
    total   13.5730f    




 element     5:m10
       rd  4.656e-26    
       rs  1.117e-20    
       id    3.1749a    
       rx  606.4214     
       fn   13.5698f    
    total   13.5730f    




 element     5:m11
       rd  3.722e-26    
       rs  1.093e-20    
       id    2.9964a    
       rx  589.6688     
       fn   16.6340f    
    total   16.6370f    




 element     5:mtail1
       rd  1.326e-24    
       rs  1.714e-20    
       id    3.8710a    
       rx  589.3703     
       fn   75.4776f    
    total   75.4815f    




 element     5:mtail2
       rd  1.326e-24    
       rs  1.714e-20    
       id    3.8710a    
       rx  589.3703     
       fn   75.4776f    
    total   75.4815f    




 element     6:mbias
       rd    0.         
       rs  1.282e-26    
       id  2.797e-24    
       rx  501.8982m    
       fn  8.769e-20    
    total  8.769e-20    




 element     6:m1
       rd  9.197e-27    
       rs  1.629e-21    
       id  2.887e-19    
       rx  144.3558     
       fn    1.5316f    
    total    1.5319f    




 element     6:m2
       rd  9.197e-27    
       rs  1.629e-21    
       id  2.887e-19    
       rx  144.3554     
       fn    1.5316f    
    total    1.5319f    




 element     6:m3
       rd  6.659e-24    
       rs  4.949e-20    
       id   11.2956a    
       rx    1.0059k    
       fn  193.1423f    
    total  193.1536f    




 element     6:m4
       rd  6.659e-24    
       rs  4.948e-20    
       id   11.2947a    
       rx    1.0059k    
       fn  193.1270f    
    total  193.1384f    




 element     6:m5
       rd  1.283e-25    
       rs  4.713e-20    
       id   12.6057a    
       rx    1.1509k    
       fn   20.4509f    
    total   20.4635f    




 element     6:m6
       rd  1.283e-25    
       rs  4.713e-20    
       id   12.6066a    
       rx    1.1510k    
       fn   20.4523f    
    total   20.4650f    




 element     6:m7
       rd    0.         
       rs    0.         
       id  1.533e-26    
       rx   40.1160m    
       fn  2.413e-23    
    total  2.414e-23    




 element     6:m8
       rd    0.         
       rs    0.         
       id  3.371e-27    
       rx   19.7771m    
       fn  1.871e-23    
    total  1.871e-23    




 element     6:m9
       rd    0.         
       rs    0.         
       id  3.571e-27    
       rx   20.3389m    
       fn  1.526e-23    
    total  1.527e-23    




 element     6:m10
       rd    0.         
       rs    0.         
       id  3.571e-27    
       rx   20.3389m    
       fn  1.526e-23    
    total  1.527e-23    




 element     6:m11
       rd    0.         
       rs    0.         
       id  3.371e-27    
       rx   19.7771m    
       fn  1.871e-23    
    total  1.871e-23    




 element     6:mtail1
       rd    0.         
       rs    0.         
       id  4.354e-27    
       rx   19.7671m    
       fn  8.490e-23    
    total  8.491e-23    




 element     6:mtail2
       rd    0.         
       rs    0.         
       id  4.354e-27    
       rx   19.7671m    
       fn  8.490e-23    
    total  8.491e-23    




 element     7:mbias
       rd    0.         
       rs  1.282e-26    
       id  2.797e-24    
       rx  501.8982m    
       fn  8.769e-20    
    total  8.769e-20    




 element     7:m1
       rd  9.197e-27    
       rs  1.629e-21    
       id  2.887e-19    
       rx  144.3623     
       fn    1.5318f    
    total    1.5321f    




 element     7:m2
       rd  9.197e-27    
       rs  1.629e-21    
       id  2.887e-19    
       rx  144.3619     
       fn    1.5318f    
    total    1.5321f    




 element     7:m3
       rd  6.659e-24    
       rs  4.948e-20    
       id   11.2955a    
       rx    1.0059k    
       fn  193.0682f    
    total  193.0795f    




 element     7:m4
       rd  6.659e-24    
       rs  4.948e-20    
       id   11.2946a    
       rx    1.0059k    
       fn  193.0529f    
    total  193.0643f    




 element     7:m5
       rd  1.283e-25    
       rs  4.713e-20    
       id   12.6057a    
       rx    1.1509k    
       fn   20.4509f    
    total   20.4635f    




 element     7:m6
       rd  1.283e-25    
       rs  4.713e-20    
       id   12.6066a    
       rx    1.1510k    
       fn   20.4523f    
    total   20.4650f    




 element     7:m7
       rd    0.         
       rs    0.         
       id  1.533e-26    
       rx   40.1160m    
       fn  2.413e-23    
    total  2.414e-23    




 element     7:m8
       rd    0.         
       rs    0.         
       id  3.371e-27    
       rx   19.7771m    
       fn  1.871e-23    
    total  1.871e-23    




 element     7:m9
       rd    0.         
       rs    0.         
       id  3.571e-27    
       rx   20.3389m    
       fn  1.526e-23    
    total  1.527e-23    




 element     7:m10
       rd    0.         
       rs    0.         
       id  3.571e-27    
       rx   20.3389m    
       fn  1.526e-23    
    total  1.527e-23    




 element     7:m11
       rd    0.         
       rs    0.         
       id  3.371e-27    
       rx   19.7771m    
       fn  1.871e-23    
    total  1.871e-23    




 element     7:mtail1
       rd    0.         
       rs    0.         
       id  4.354e-27    
       rx   19.7671m    
       fn  8.490e-23    
    total  8.491e-23    




 element     7:mtail2
       rd    0.         
       rs    0.         
       id  4.354e-27    
       rx   19.7671m    
       fn  8.490e-23    
    total  8.491e-23    




 element     8:mbias
       rd    0.         
       rs  1.282e-26    
       id  2.797e-24    
       rx  501.8982m    
       fn  8.769e-20    
    total  8.769e-20    




 element     8:m1
       rd  2.069e-26    
       rs  3.893e-21    
       id  6.901e-19    
       rx  223.1847     
       fn    3.6613f    
    total    3.6620f    




 element     8:m2
       rd  2.428e-26    
       rs  3.890e-21    
       id  6.895e-19    
       rx  223.0902     
       fn    3.6582f    
    total    3.6589f    




 element     8:m3
       rd  1.603e-23    
       rs  1.190e-19    
       id   27.1669a    
       rx    1.5600k    
       fn  464.3496f    
    total  464.3769f    




 element     8:m4
       rd  1.575e-23    
       rs  1.174e-19    
       id   26.8042a    
       rx    1.5496k    
       fn  458.1511f    
    total  458.1780f    




 element     8:m5
       rd  3.167e-25    
       rs  1.119e-19    
       id   29.9393a    
       rx    1.7737k    
       fn   48.5717f    
    total   48.6017f    




 element     8:m6
       rd  3.025e-25    
       rs  1.133e-19    
       id   30.2964a    
       rx    1.7843k    
       fn   49.1511f    
    total   49.1815f    




 element     8:m7
       rd    0.         
       rs  3.922e-24    
       id  1.061e-21    
       rx   10.5561     
       fn    1.6706a    
    total    1.6717a    




 element     8:m8
       rd    0.         
       rs  8.514e-25    
       id  2.334e-22    
       rx    5.2041     
       fn    1.2956a    
    total    1.2959a    




 element     8:m9
       rd    0.         
       rs  8.700e-25    
       id  2.473e-22    
       rx    5.3520     
       fn    1.0570a    
    total    1.0572a    




 element     8:m10
       rd    0.         
       rs  8.700e-25    
       id  2.473e-22    
       rx    5.3520     
       fn    1.0570a    
    total    1.0572a    




 element     8:m11
       rd    0.         
       rs  8.514e-25    
       id  2.334e-22    
       rx    5.2041     
       fn    1.2956a    
    total    1.2959a    




 element     8:mtail1
       rd  1.030e-28    
       rs  1.335e-24    
       id  3.015e-22    
       rx    5.2015     
       fn    5.8790a    
    total    5.8793a    




 element     8:mtail2
       rd  1.030e-28    
       rs  1.335e-24    
       id  3.015e-22    
       rx    5.2015     
       fn    5.8790a    
    total    5.8793a    




 **** total output noise voltage         =   4.0920p       sq v/hz
                                         =   2.0229u       v/rt hz
      transfer function value:
        v(vout_i)/vvin_i                 = 190.2054m      
      equivalent input noise at vvin_i                        
                                         =  10.6352u       /rt hz



 **** the results of the sqrt of integral (v**2 / freq)
      from fstart upto   10.0000       hz. using more freq points
      results in more accurate total noise values.

 **** total output noise voltage   =    0.            volts
 **** total equivalent input noise =    0.           



1****** HSPICE -- F-2011.09 32-BIT (Sep  5 2011) winnt ******                   
 ******  
 .title gm_ac

  ******  noise analysis tnom=  25.000 temp=  27.000 *****

     frequency = 100.0000       hz




 **** resistor squared noise voltages (sq v/hz)




 element     2:r1
       rs    7.4889a    
      1/f    0.         
    total    7.4889a    
       rx    2.0165k    




 element     3:r1
       rs    8.1723a    
      1/f    0.         
    total    8.1723a    
       rx    2.1065k    




 element     4:r1
       rs    8.1723a    
      1/f    0.         
    total    8.1723a    
       rx    2.1065k    




 element     5:r1
       rs    7.9617a    
      1/f    0.         
    total    7.9617a    
       rx    2.0792k    




 element     6:r1
       rs    7.4890a    
      1/f    0.         
    total    7.4890a    
       rx    2.0165k    




 element     7:r1
       rs    7.4889a    
      1/f    0.         
    total    7.4889a    
       rx    2.0165k    




 element     8:r1
       rs   17.8919a    
      1/f    0.         
    total   17.8919a    
       rx    3.1168k    



 **** mosfet squared noise voltages (sq v/hz)




 element     2:mbias
       rd    0.         
       rs  1.282e-26    
       id  2.797e-24    
       rx  501.8990m    
       fn  1.333e-20    
    total  1.334e-20    




 element     2:m1
       rd  9.197e-27    
       rs  1.629e-21    
       id  2.887e-19    
       rx  144.3624     
       fn  232.9254a    
    total  233.2157a    




 element     2:m2
       rd  9.197e-27    
       rs  1.629e-21    
       id  2.887e-19    
       rx  144.3620     
       fn  232.9242a    
    total  233.2146a    




 element     2:m3
       rd  6.629e-24    
       rs  4.948e-20    
       id   11.2955a    
       rx    1.0059k    
       fn   29.3569f    
    total   29.3682f    




 element     2:m4
       rd  6.629e-24    
       rs  4.948e-20    
       id   11.2946a    
       rx    1.0059k    
       fn   29.3546f    
    total   29.3659f    




 element     2:m5
       rd  1.283e-25    
       rs  4.713e-20    
       id   12.6057a    
       rx    1.1509k    
       fn    1.5136f    
    total    1.5263f    




 element     2:m6
       rd  1.283e-25    
       rs  4.713e-20    
       id   12.6066a    
       rx    1.1510k    
       fn    1.5137f    
    total    1.5264f    




 element     2:m7
       rd    0.         
       rs    0.         
       id  1.533e-26    
       rx   40.1160m    
       fn  1.786e-24    
    total  1.801e-24    




 element     2:m8
       rd    0.         
       rs    0.         
       id  3.371e-27    
       rx   19.7786m    
       fn  2.846e-24    
    total  2.849e-24    




 element     2:m9
       rd    0.         
       rs    0.         
       id  3.572e-27    
       rx   20.3403m    
       fn  2.321e-24    
    total  2.325e-24    




 element     2:m10
       rd    0.         
       rs    0.         
       id  3.572e-27    
       rx   20.3402m    
       fn  2.321e-24    
    total  2.325e-24    




 element     2:m11
       rd    0.         
       rs    0.         
       id  3.371e-27    
       rx   19.7786m    
       fn  2.846e-24    
    total  2.849e-24    




 element     2:mtail1
       rd    0.         
       rs    0.         
       id  4.355e-27    
       rx   19.7685m    
       fn  1.291e-23    
    total  1.292e-23    




 element     2:mtail2
       rd    0.         
       rs    0.         
       id  4.355e-27    
       rx   19.7686m    
       fn  1.291e-23    
    total  1.292e-23    




 element     3:mbias
       rd    0.         
       rs  1.282e-26    
       id  2.797e-24    
       rx  501.8990m    
       fn  1.333e-20    
    total  1.334e-20    




 element     3:m1
       rd  1.164e-26    
       rs  1.776e-21    
       id  3.149e-19    
       rx  150.7673     
       fn  254.0525a    
    total  254.3692a    




 element     3:m2
       rd  1.164e-26    
       rs  1.778e-21    
       id  3.152e-19    
       rx  150.8434     
       fn  254.3088a    
    total  254.6259a    




 element     3:m3
       rd  7.187e-24    
       rs  5.357e-20    
       id   12.2273a    
       rx    1.0466k    
       fn   31.7786f    
    total   31.7909f    




 element     3:m4
       rd  7.315e-24    
       rs  5.443e-20    
       id   12.4247a    
       rx    1.0550k    
       fn   32.2918f    
    total   32.3043f    




 element     3:m5
       rd  1.472e-25    
       rs  5.180e-20    
       id   13.8539a    
       rx    1.2066k    
       fn    1.6635f    
    total    1.6774f    




 element     3:m6
       rd  1.472e-25    
       rs  5.107e-20    
       id   13.6595a    
       rx    1.1981k    
       fn    1.6401f    
    total    1.6538f    




 element     3:m7
       rd    0.         
       rs  2.545e-24    
       id  6.888e-22    
       rx    8.5039     
       fn  8.024e-20    
    total  8.093e-20    




 element     3:m8
       rd    0.         
       rs  5.525e-25    
       id  1.515e-22    
       rx    4.1924     
       fn  1.279e-19    
    total  1.280e-19    




 element     3:m9
       rd    0.         
       rs  5.646e-25    
       id  1.605e-22    
       rx    4.3115     
       fn  1.043e-19    
    total  1.045e-19    




 element     3:m10
       rd    0.         
       rs  5.646e-25    
       id  1.605e-22    
       rx    4.3115     
       fn  1.043e-19    
    total  1.045e-19    




 element     3:m11
       rd    0.         
       rs  5.525e-25    
       id  1.515e-22    
       rx    4.1924     
       fn  1.279e-19    
    total  1.280e-19    




 element     3:mtail1
       rd    0.         
       rs  8.664e-25    
       id  1.957e-22    
       rx    4.1903     
       fn  5.801e-19    
    total  5.803e-19    




 element     3:mtail2
       rd    0.         
       rs  8.664e-25    
       id  1.957e-22    
       rx    4.1903     
       fn  5.801e-19    
    total  5.803e-19    




 element     4:mbias
       rd    0.         
       rs  1.282e-26    
       id  2.797e-24    
       rx  501.8990m    
       fn  1.333e-20    
    total  1.334e-20    




 element     4:m1
       rd  1.164e-26    
       rs  1.776e-21    
       id  3.149e-19    
       rx  150.7673     
       fn  254.0526a    
    total  254.3693a    




 element     4:m2
       rd  1.164e-26    
       rs  1.778e-21    
       id  3.152e-19    
       rx  150.8434     
       fn  254.3089a    
    total  254.6260a    




 element     4:m3
       rd  7.251e-24    
       rs  5.357e-20    
       id   12.2273a    
       rx    1.0466k    
       fn   31.7786f    
    total   31.7908f    




 element     4:m4
       rd  7.315e-24    
       rs  5.443e-20    
       id   12.4247a    
       rx    1.0550k    
       fn   32.2917f    
    total   32.3042f    




 element     4:m5
       rd  1.472e-25    
       rs  5.180e-20    
       id   13.8539a    
       rx    1.2066k    
       fn    1.6635f    
    total    1.6774f    




 element     4:m6
       rd  1.472e-25    
       rs  5.107e-20    
       id   13.6595a    
       rx    1.1981k    
       fn    1.6401f    
    total    1.6538f    




 element     4:m7
       rd    0.         
       rs  2.545e-24    
       id  6.888e-22    
       rx    8.5039     
       fn  8.024e-20    
    total  8.093e-20    




 element     4:m8
       rd    0.         
       rs  5.525e-25    
       id  1.515e-22    
       rx    4.1924     
       fn  1.279e-19    
    total  1.280e-19    




 element     4:m9
       rd    0.         
       rs  5.646e-25    
       id  1.605e-22    
       rx    4.3115     
       fn  1.043e-19    
    total  1.045e-19    




 element     4:m10
       rd    0.         
       rs  5.646e-25    
       id  1.605e-22    
       rx    4.3115     
       fn  1.043e-19    
    total  1.045e-19    




 element     4:m11
       rd    0.         
       rs  5.525e-25    
       id  1.515e-22    
       rx    4.1924     
       fn  1.279e-19    
    total  1.280e-19    




 element     4:mtail1
       rd    0.         
       rs  8.664e-25    
       id  1.957e-22    
       rx    4.1903     
       fn  5.801e-19    
    total  5.803e-19    




 element     4:mtail2
       rd    0.         
       rs  8.664e-25    
       id  1.957e-22    
       rx    4.1903     
       fn  5.801e-19    
    total  5.803e-19    




 element     5:mbias
       rd    0.         
       rs  1.282e-26    
       id  2.797e-24    
       rx  501.8990m    
       fn  1.333e-20    
    total  1.334e-20    




 element     5:m1
       rd  9.197e-27    
       rs  1.858e-21    
       id  3.294e-19    
       rx  154.1979     
       fn  265.7454a    
    total  266.0766a    




 element     5:m2
       rd  8.083e-27    
       rs  1.610e-21    
       id  2.853e-19    
       rx  143.5009     
       fn  230.1538a    
    total  230.4407a    




 element     5:m3
       rd  1.748e-23    
       rs  1.298e-19    
       id   29.6241a    
       rx    1.6291k    
       fn   76.9928f    
    total   77.0225f    




 element     5:m4
       rd  1.306e-24    
       rs  9.696e-21    
       id    2.2134a    
       rx  445.2934     
       fn    5.7526f    
    total    5.7548f    




 element     5:m5
       rd  3.206e-26    
       rs  1.235e-20    
       id    3.3034a    
       rx  589.1709     
       fn  396.6457a    
    total  399.9615a    




 element     5:m6
       rd  3.025e-25    
       rs  1.133e-19    
       id   30.2964a    
       rx    1.7843k    
       fn    3.6377f    
    total    3.6682f    




 element     5:m7
       rd  1.781e-25    
       rs  5.035e-20    
       id   13.6260a    
       rx    1.1961k    
       fn    1.5874f    
    total    1.6011f    




 element     5:m8
       rd  3.722e-26    
       rs  1.093e-20    
       id    2.9964a    
       rx  589.6688     
       fn    2.5293f    
    total    2.5323f    




 element     5:m9
       rd  4.656e-26    
       rs  1.117e-20    
       id    3.1749a    
       rx  606.4214     
       fn    2.0633f    
    total    2.0665f    




 element     5:m10
       rd  4.656e-26    
       rs  1.117e-20    
       id    3.1749a    
       rx  606.4214     
       fn    2.0633f    
    total    2.0665f    




 element     5:m11
       rd  3.722e-26    
       rs  1.093e-20    
       id    2.9964a    
       rx  589.6688     
       fn    2.5293f    
    total    2.5323f    




 element     5:mtail1
       rd  1.326e-24    
       rs  1.714e-20    
       id    3.8710a    
       rx  589.3703     
       fn   11.4767f    
    total   11.4806f    




 element     5:mtail2
       rd  1.326e-24    
       rs  1.714e-20    
       id    3.8710a    
       rx  589.3703     
       fn   11.4767f    
    total   11.4806f    




 element     6:mbias
       rd    0.         
       rs  1.282e-26    
       id  2.797e-24    
       rx  501.8990m    
       fn  1.333e-20    
    total  1.334e-20    




 element     6:m1
       rd  9.197e-27    
       rs  1.629e-21    
       id  2.887e-19    
       rx  144.3558     
       fn  232.8831a    
    total  233.1735a    




 element     6:m2
       rd  9.197e-27    
       rs  1.629e-21    
       id  2.887e-19    
       rx  144.3554     
       fn  232.8820a    
    total  233.1723a    




 element     6:m3
       rd  6.659e-24    
       rs  4.949e-20    
       id   11.2956a    
       rx    1.0059k    
       fn   29.3682f    
    total   29.3795f    




 element     6:m4
       rd  6.659e-24    
       rs  4.948e-20    
       id   11.2947a    
       rx    1.0059k    
       fn   29.3659f    
    total   29.3772f    




 element     6:m5
       rd  1.283e-25    
       rs  4.713e-20    
       id   12.6057a    
       rx    1.1509k    
       fn    1.5136f    
    total    1.5263f    




 element     6:m6
       rd  1.283e-25    
       rs  4.713e-20    
       id   12.6066a    
       rx    1.1510k    
       fn    1.5137f    
    total    1.5264f    




 element     6:m7
       rd    0.         
       rs    0.         
       id  1.533e-26    
       rx   40.1160m    
       fn  1.786e-24    
    total  1.801e-24    




 element     6:m8
       rd    0.         
       rs    0.         
       id  3.371e-27    
       rx   19.7786m    
       fn  2.846e-24    
    total  2.849e-24    




 element     6:m9
       rd    0.         
       rs    0.         
       id  3.572e-27    
       rx   20.3403m    
       fn  2.321e-24    
    total  2.325e-24    




 element     6:m10
       rd    0.         
       rs    0.         
       id  3.572e-27    
       rx   20.3402m    
       fn  2.321e-24    
    total  2.325e-24    




 element     6:m11
       rd    0.         
       rs    0.         
       id  3.371e-27    
       rx   19.7786m    
       fn  2.846e-24    
    total  2.849e-24    




 element     6:mtail1
       rd    0.         
       rs    0.         
       id  4.355e-27    
       rx   19.7685m    
       fn  1.291e-23    
    total  1.292e-23    




 element     6:mtail2
       rd    0.         
       rs    0.         
       id  4.355e-27    
       rx   19.7686m    
       fn  1.291e-23    
    total  1.292e-23    




 element     7:mbias
       rd    0.         
       rs  1.282e-26    
       id  2.797e-24    
       rx  501.8990m    
       fn  1.333e-20    
    total  1.334e-20    




 element     7:m1
       rd  9.197e-27    
       rs  1.629e-21    
       id  2.887e-19    
       rx  144.3623     
       fn  232.9251a    
    total  233.2154a    




 element     7:m2
       rd  9.197e-27    
       rs  1.629e-21    
       id  2.887e-19    
       rx  144.3619     
       fn  232.9239a    
    total  233.2143a    




 element     7:m3
       rd  6.659e-24    
       rs  4.948e-20    
       id   11.2955a    
       rx    1.0059k    
       fn   29.3569f    
    total   29.3683f    




 element     7:m4
       rd  6.659e-24    
       rs  4.948e-20    
       id   11.2946a    
       rx    1.0059k    
       fn   29.3546f    
    total   29.3660f    




 element     7:m5
       rd  1.283e-25    
       rs  4.713e-20    
       id   12.6057a    
       rx    1.1509k    
       fn    1.5136f    
    total    1.5263f    




 element     7:m6
       rd  1.283e-25    
       rs  4.713e-20    
       id   12.6066a    
       rx    1.1510k    
       fn    1.5137f    
    total    1.5264f    




 element     7:m7
       rd    0.         
       rs    0.         
       id  1.533e-26    
       rx   40.1160m    
       fn  1.786e-24    
    total  1.801e-24    




 element     7:m8
       rd    0.         
       rs    0.         
       id  3.371e-27    
       rx   19.7786m    
       fn  2.846e-24    
    total  2.849e-24    




 element     7:m9
       rd    0.         
       rs    0.         
       id  3.572e-27    
       rx   20.3403m    
       fn  2.321e-24    
    total  2.325e-24    




 element     7:m10
       rd    0.         
       rs    0.         
       id  3.572e-27    
       rx   20.3402m    
       fn  2.321e-24    
    total  2.325e-24    




 element     7:m11
       rd    0.         
       rs    0.         
       id  3.371e-27    
       rx   19.7786m    
       fn  2.846e-24    
    total  2.849e-24    




 element     7:mtail1
       rd    0.         
       rs    0.         
       id  4.355e-27    
       rx   19.7685m    
       fn  1.291e-23    
    total  1.292e-23    




 element     7:mtail2
       rd    0.         
       rs    0.         
       id  4.355e-27    
       rx   19.7686m    
       fn  1.291e-23    
    total  1.292e-23    




 element     8:mbias
       rd    0.         
       rs  1.282e-26    
       id  2.797e-24    
       rx  501.8990m    
       fn  1.333e-20    
    total  1.334e-20    




 element     8:m1
       rd  2.069e-26    
       rs  3.893e-21    
       id  6.901e-19    
       rx  223.1847     
       fn  556.7212a    
    total  557.4152a    




 element     8:m2
       rd  2.428e-26    
       rs  3.890e-21    
       id  6.895e-19    
       rx  223.0902     
       fn  556.2499a    
    total  556.9433a    




 element     8:m3
       rd  1.603e-23    
       rs  1.190e-19    
       id   27.1669a    
       rx    1.5600k    
       fn   70.6066f    
    total   70.6339f    




 element     8:m4
       rd  1.575e-23    
       rs  1.174e-19    
       id   26.8042a    
       rx    1.5496k    
       fn   69.6641f    
    total   69.6910f    




 element     8:m5
       rd  3.167e-25    
       rs  1.119e-19    
       id   29.9393a    
       rx    1.7737k    
       fn    3.5949f    
    total    3.6249f    




 element     8:m6
       rd  3.025e-25    
       rs  1.133e-19    
       id   30.2964a    
       rx    1.7843k    
       fn    3.6377f    
    total    3.6682f    




 element     8:m7
       rd    0.         
       rs  3.922e-24    
       id  1.061e-21    
       rx   10.5561     
       fn  1.236e-19    
    total  1.247e-19    




 element     8:m8
       rd    0.         
       rs  8.514e-25    
       id  2.334e-22    
       rx    5.2041     
       fn  1.970e-19    
    total  1.972e-19    




 element     8:m9
       rd    0.         
       rs  8.700e-25    
       id  2.473e-22    
       rx    5.3520     
       fn  1.607e-19    
    total  1.610e-19    




 element     8:m10
       rd    0.         
       rs  8.700e-25    
       id  2.473e-22    
       rx    5.3520     
       fn  1.607e-19    
    total  1.610e-19    




 element     8:m11
       rd    0.         
       rs  8.514e-25    
       id  2.334e-22    
       rx    5.2041     
       fn  1.970e-19    
    total  1.972e-19    




 element     8:mtail1
       rd  1.030e-28    
       rs  1.335e-24    
       id  3.015e-22    
       rx    5.2015     
       fn  8.939e-19    
    total  8.942e-19    




 element     8:mtail2
       rd  1.030e-28    
       rs  1.335e-24    
       id  3.015e-22    
       rx    5.2015     
       fn  8.939e-19    
    total  8.942e-19    




 **** total output noise voltage         = 592.5579f       sq v/hz
                                         = 769.7779n       v/rt hz
      transfer function value:
        v(vout_i)/vvin_i                 = 190.2054m      
      equivalent input noise at vvin_i                        
                                         =   4.0471u       /rt hz



 **** the results of the sqrt of integral (v**2 / freq)
      from fstart upto  100.0000       hz. using more freq points
      results in more accurate total noise values.

 **** total output noise voltage   =   10.6999u       volts
 **** total equivalent input noise =   56.2543u      



1****** HSPICE -- F-2011.09 32-BIT (Sep  5 2011) winnt ******                   
 ******  
 .title gm_ac

  ******  noise analysis tnom=  25.000 temp=  27.000 *****

     frequency =   1.0000k      hz




 **** resistor squared noise voltages (sq v/hz)




 element     2:r1
       rs    7.4889a    
      1/f    0.         
    total    7.4889a    
       rx    2.0165k    




 element     3:r1
       rs    8.1723a    
      1/f    0.         
    total    8.1723a    
       rx    2.1065k    




 element     4:r1
       rs    8.1723a    
      1/f    0.         
    total    8.1723a    
       rx    2.1065k    




 element     5:r1
       rs    7.9617a    
      1/f    0.         
    total    7.9617a    
       rx    2.0792k    




 element     6:r1
       rs    7.4890a    
      1/f    0.         
    total    7.4890a    
       rx    2.0165k    




 element     7:r1
       rs    7.4889a    
      1/f    0.         
    total    7.4889a    
       rx    2.0165k    




 element     8:r1
       rs   17.8919a    
      1/f    0.         
    total   17.8919a    
       rx    3.1168k    



 **** mosfet squared noise voltages (sq v/hz)




 element     2:mbias
       rd    0.         
       rs  1.283e-26    
       id  2.798e-24    
       rx  501.9760m    
       fn  2.028e-21    
    total  2.031e-21    




 element     2:m1
       rd  9.197e-27    
       rs  1.629e-21    
       id  2.887e-19    
       rx  144.3623     
       fn   35.4174a    
    total   35.7078a    




 element     2:m2
       rd  9.197e-27    
       rs  1.629e-21    
       id  2.887e-19    
       rx  144.3620     
       fn   35.4172a    
    total   35.7076a    




 element     2:m3
       rd  6.659e-24    
       rs  4.948e-20    
       id   11.2955a    
       rx    1.0059k    
       fn    4.4639f    
    total    4.4752f    




 element     2:m4
       rd  6.659e-24    
       rs  4.948e-20    
       id   11.2946a    
       rx    1.0059k    
       fn    4.4635f    
    total    4.4748f    




 element     2:m5
       rd  1.283e-25    
       rs  4.713e-20    
       id   12.6057a    
       rx    1.1509k    
       fn  112.0243a    
    total  124.6771a    




 element     2:m6
       rd  1.283e-25    
       rs  4.713e-20    
       id   12.6066a    
       rx    1.1510k    
       fn  112.0321a    
    total  124.6858a    




 element     2:m7
       rd    0.         
       rs    0.         
       id  1.533e-26    
       rx   40.1160m    
       fn  1.322e-25    
    total  1.475e-25    




 element     2:m8
       rd    0.         
       rs    0.         
       id  3.419e-27    
       rx   19.9197m    
       fn  4.389e-25    
    total  4.423e-25    




 element     2:m9
       rd    0.         
       rs    0.         
       id  3.621e-27    
       rx   20.4789m    
       fn  3.578e-25    
    total  3.614e-25    




 element     2:m10
       rd    0.         
       rs    0.         
       id  3.620e-27    
       rx   20.4765m    
       fn  3.577e-25    
    total  3.613e-25    




 element     2:m11
       rd    0.         
       rs    0.         
       id  3.420e-27    
       rx   19.9220m    
       fn  4.390e-25    
    total  4.424e-25    




 element     2:mtail1
       rd    0.         
       rs    0.         
       id  4.417e-27    
       rx   19.9086m    
       fn  1.991e-24    
    total  1.996e-24    




 element     2:mtail2
       rd    0.         
       rs    0.         
       id  4.418e-27    
       rx   19.9109m    
       fn  1.992e-24    
    total  1.996e-24    




 element     3:mbias
       rd    0.         
       rs  1.283e-26    
       id  2.798e-24    
       rx  501.9760m    
       fn  2.028e-21    
    total  2.031e-21    




 element     3:m1
       rd  9.197e-27    
       rs  1.776e-21    
       id  3.149e-19    
       rx  150.7675     
       fn   38.6300a    
    total   38.9467a    




 element     3:m2
       rd  9.197e-27    
       rs  1.778e-21    
       id  3.152e-19    
       rx  150.8435     
       fn   38.6689a    
    total   38.9860a    




 element     3:m3
       rd  7.187e-24    
       rs  5.357e-20    
       id   12.2273a    
       rx    1.0466k    
       fn    4.8321f    
    total    4.8444f    




 element     3:m4
       rd  7.315e-24    
       rs  5.443e-20    
       id   12.4247a    
       rx    1.0550k    
       fn    4.9101f    
    total    4.9226f    




 element     3:m5
       rd  1.376e-25    
       rs  5.180e-20    
       id   13.8539a    
       rx    1.2066k    
       fn  123.1160a    
    total  137.0217a    




 element     3:m6
       rd  1.376e-25    
       rs  5.107e-20    
       id   13.6595a    
       rx    1.1981k    
       fn  121.3881a    
    total  135.0986a    




 element     3:m7
       rd    0.         
       rs  2.545e-24    
       id  6.888e-22    
       rx    8.5039     
       fn  5.939e-21    
    total  6.630e-21    




 element     3:m8
       rd    0.         
       rs  5.526e-25    
       id  1.515e-22    
       rx    4.1924     
       fn  1.944e-20    
    total  1.959e-20    




 element     3:m9
       rd    0.         
       rs  5.645e-25    
       id  1.605e-22    
       rx    4.3115     
[...]
       rx   35.6308n    




 element     3:r1
       rs  2.115e-24    
      1/f    0.         
    total  2.115e-24    
       rx    1.0717     




 element     4:r1
       rs    0.         
      1/f    0.         
    total    0.         
       rx    8.7683u    




 element     5:r1
       rs  2.368e-27    
      1/f    0.         
    total  2.368e-27    
       rx   35.8608m    




 element     6:r1
       rs    0.         
      1/f    0.         
    total    0.         
       rx    1.2018n    




 element     7:r1
       rs    0.         
      1/f    0.         
    total    0.         
       rx  261.2009u    




 element     8:r1
       rs  2.108e-24    
      1/f    0.         
    total  2.108e-24    
       rx    1.0698     



 **** mosfet squared noise voltages (sq v/hz)




 element     2:mbias
       rd    0.         
       rs  2.314e-28    
       id  1.604e-27    
       rx   12.0176m    
       fn    0.         
    total  1.841e-27    




 element     2:m1
       rd    0.         
       rs    0.         
       id    0.         
       rx   83.7847u    
       fn    0.         
    total    0.         




 element     2:m2
       rd    0.         
       rs    0.         
       id    0.         
       rx   83.7825u    
       fn    0.         
    total    0.         




 element     2:m3
       rd    0.         
       rs  2.262e-28    
       id    0.         
       rx  190.2266u    
       fn    0.         
    total  2.276e-28    




 element     2:m4
       rd    0.         
       rs  2.262e-28    
       id    0.         
       rx  190.2597u    
       fn    0.         
    total  2.276e-28    




 element     2:m5
       rd    0.         
       rs    0.         
       id    0.         
       rx   42.5096u    
       fn    0.         
    total    0.         




 element     2:m6
       rd    0.         
       rs    0.         
       id    0.         
       rx   42.4728u    
       fn    0.         
    total    0.         




 element     2:m7
       rd    0.         
       rs    0.         
       id    0.         
       rx  971.2444n    
       fn    0.         
    total    0.         




 element     2:m8
       rd    0.         
       rs    0.         
       id    0.         
       rx   65.9095u    
       fn    0.         
    total    0.         




 element     2:m9
       rd    0.         
       rs    0.         
       id    0.         
       rx   63.3069u    
       fn    0.         
    total    0.         




 element     2:m10
       rd    0.         
       rs    0.         
       id    0.         
       rx   63.3130u    
       fn    0.         
    total    0.         




 element     2:m11
       rd    0.         
       rs    0.         
       id    0.         
       rx   65.9182u    
       fn    0.         
    total    0.         




 element     2:mtail1
       rd    0.         
       rs  2.260e-28    
       id    0.         
       rx  160.4213u    
       fn    0.         
    total  2.273e-28    




 element     2:mtail2
       rd    0.         
       rs  2.260e-28    
       id    0.         
       rx  160.4391u    
       fn    0.         
    total  2.273e-28    




 element     3:mbias
       rd    0.         
       rs  2.314e-28    
       id  1.604e-27    
       rx   12.0176m    
       fn    0.         
    total  1.841e-27    




 element     3:m1
       rd  1.767e-25    
       rs  7.687e-26    
       id  1.575e-23    
       rx    1.0662     
       fn  3.631e-27    
    total  1.601e-23    




 element     3:m2
       rd    0.         
       rs  3.495e-28    
       id  5.349e-28    
       rx    6.2137m    
       fn    0.         
    total  9.079e-28    




 element     3:m3
       rd  7.857e-26    
       rs  4.995e-26    
       id  1.277e-23    
       rx    1.0697     
       fn  9.487e-27    
    total  1.291e-23    




 element     3:m4
       rd    0.         
       rs  2.179e-28    
       id    0.         
       rx    2.1915m    
       fn    0.         
    total  2.738e-28    




 element     3:m5
       rd  1.222e-28    
       rs    0.         
       id  3.419e-28    
       rx    5.9940m    
       fn    0.         
    total  4.693e-28    




 element     3:m6
       rd  1.203e-28    
       rs    0.         
       id  3.367e-28    
       rx    5.9480m    
       fn    0.         
    total  4.618e-28    




 element     3:m7
       rd    0.         
       rs    0.         
       id    0.         
       rx  136.3205u    
       fn    0.         
    total    0.         




 element     3:m8
       rd    0.         
       rs  4.717e-28    
       id    0.         
       rx    2.3078m    
       fn    0.         
    total  5.207e-28    




 element     3:m9
       rd    0.         
       rs  4.645e-28    
       id    0.         
       rx    2.1231m    
       fn    0.         
    total  5.035e-28    




 element     3:m10
       rd    0.         
       rs  4.730e-28    
       id    0.         
       rx    2.1404m    
       fn    0.         
    total  5.126e-28    




 element     3:m11
       rd    0.         
       rs  4.782e-28    
       id    0.         
       rx    2.3281m    
       fn    0.         
    total  5.280e-28    




 element     3:mtail1
       rd    0.         
       rs  2.131e-28    
       id    0.         
       rx    2.3849m    
       fn    0.         
    total  2.772e-28    




 element     3:mtail2
       rd    0.         
       rs  2.134e-28    
       id    0.         
       rx    2.4009m    
       fn    0.         
    total  2.784e-28    




 element     4:mbias
       rd    0.         
       rs  2.314e-28    
       id  1.604e-27    
       rx   12.0176m    
       fn    0.         
    total  1.841e-27    




 element     4:m1
       rd    0.         
       rs    0.         
       id  4.808e-28    
       rx    5.8911m    
       fn    0.         
    total  5.053e-28    




 element     4:m2
       rd    0.         
       rs    0.         
       id  4.877e-28    
       rx    5.9331m    
       fn    0.         
    total  5.126e-28    




 element     4:m3
       rd    0.         
       rs  2.258e-28    
       id    0.         
       rx  217.7035u    
       fn    0.         
    total  2.274e-28    




 element     4:m4
       rd    0.         
       rs  2.258e-28    
       id    0.         
       rx  225.6465u    
       fn    0.         
    total  2.274e-28    




 element     4:m5
       rd  1.222e-28    
       rs    0.         
       id  3.419e-28    
       rx    5.9940m    
       fn    0.         
    total  4.693e-28    




 element     4:m6
       rd  1.203e-28    
       rs    0.         
       id  3.367e-28    
       rx    5.9480m    
       fn    0.         
    total  4.618e-28    




 element     4:m7
       rd    0.         
       rs    0.         
       id    0.         
       rx  136.3205u    
       fn    0.         
    total    0.         




 element     4:m8
       rd    0.         
       rs  4.717e-28    
       id    0.         
       rx    2.3078m    
       fn    0.         
    total  5.207e-28    




 element     4:m9
       rd    0.         
       rs  4.645e-28    
       id    0.         
       rx    2.1231m    
       fn    0.         
    total  5.035e-28    




 element     4:m10
       rd    0.         
       rs  4.730e-28    
       id    0.         
       rx    2.1404m    
       fn    0.         
    total  5.126e-28    




 element     4:m11
       rd    0.         
       rs  4.782e-28    
       id    0.         
       rx    2.3281m    
       fn    0.         
    total  5.280e-28    




 element     4:mtail1
       rd    0.         
       rs  2.131e-28    
       id    0.         
       rx    2.3849m    
       fn    0.         
    total  2.772e-28    




 element     4:mtail2
       rd    0.         
       rs  2.134e-28    
       id    0.         
       rx    2.4009m    
       fn    0.         
    total  2.784e-28    




 element     5:mbias
       rd    0.         
       rs  2.314e-28    
       id  1.604e-27    
       rx   12.0176m    
       fn    0.         
    total  1.841e-27    




 element     5:m1
       rd  1.337e-24    
       rs  1.016e-28    
       id  2.801e-23    
       rx    1.4218     
       fn  6.457e-27    
    total  2.935e-23    




 element     5:m2
       rd    0.         
       rs    0.         
       id  2.597e-28    
       rx    4.3292m    
       fn    0.         
    total  2.650e-28    




 element     5:m3
       rd  1.050e-28    
       rs  1.670e-28    
       id  1.427e-26    
       rx   35.7515m    
       fn    0.         
    total  1.455e-26    




 element     5:m4
       rd    0.         
       rs  2.013e-28    
       id  2.326e-28    
       rx    4.5650m    
       fn    0.         
    total  4.353e-28    




 element     5:m5
       rd  1.184e-28    
       rs  8.369e-26    
       id    0.         
       rx    2.9039m    
       fn    0.         
    total  8.389e-26    




 element     5:m6
       rd  6.940e-24    
       rs  9.196e-26    
       id  1.925e-23    
       rx    1.4224     
       fn    0.         
    total  2.629e-23    




 element     5:m7
       rd  4.691e-28    
       rs  8.343e-26    
       id  2.514e-27    
       rx   16.2480m    
       fn    0.         
    total  8.641e-26    




 element     5:m8
       rd  1.756e-25    
       rs  2.747e-23    
       id  2.560e-24    
       rx  545.0482m    
       fn  6.175e-28    
    total  3.021e-23    




 element     5:m9
       rd  1.622e-28    
       rs  2.609e-23    
       id  2.318e-24    
       rx  518.1214m    
       fn  4.304e-28    
    total  2.841e-23    




 element     5:m10
       rd  1.653e-28    
       rs    0.         
       id  2.366e-27    
       rx   16.5546m    
       fn    0.         
    total  2.533e-27    




 element     5:m11
       rd    0.         
       rs    0.         
       id    0.         
       rx  216.3620u    
       fn    0.         
    total    0.         




 element     5:mtail1
       rd  1.853e-26    
       rs  1.123e-26    
       id  3.200e-24    
       rx  535.8744m    
       fn  2.711e-27    
    total  3.233e-24    




 element     5:mtail2
       rd    0.         
       rs  2.248e-28    
       id    0.         
       rx  351.6173u    
       fn    0.         
    total  2.272e-28    




 element     6:mbias
       rd    0.         
       rs  2.314e-28    
       id  1.604e-27    
       rx   12.0176m    
       fn    0.         
    total  1.841e-27    




 element     6:m1
       rd    0.         
       rs    0.         
       id    0.         
       rx   61.7419u    
       fn    0.         
    total    0.         




 element     6:m2
       rd    0.         
       rs    0.         
       id    0.         
       rx   61.7470u    
       fn    0.         
    total    0.         




 element     6:m3
       rd    0.         
       rs  2.264e-28    
       id    0.         
       rx  160.5669u    
       fn    0.         
    total  2.277e-28    




 element     6:m4
       rd    0.         
       rs  2.264e-28    
       id    0.         
       rx  160.5665u    
       fn    0.         
    total  2.277e-28    




 element     6:m5
       rd    0.         
       rs    0.         
       id    0.         
       rx   42.5096u    
       fn    0.         
    total    0.         




 element     6:m6
       rd    0.         
       rs    0.         
       id    0.         
       rx   42.4728u    
       fn    0.         
    total    0.         




 element     6:m7
       rd    0.         
       rs    0.         
       id    0.         
       rx  971.2444n    
       fn    0.         
    total    0.         




 element     6:m8
       rd    0.         
       rs    0.         
       id    0.         
       rx   65.9095u    
       fn    0.         
    total    0.         




 element     6:m9
       rd    0.         
       rs    0.         
       id    0.         
       rx   63.3069u    
       fn    0.         
    total    0.         




 element     6:m10
       rd    0.         
       rs    0.         
       id    0.         
       rx   63.3130u    
       fn    0.         
    total    0.         




 element     6:m11
       rd    0.         
       rs    0.         
       id    0.         
       rx   65.9182u    
       fn    0.         
    total    0.         




 element     6:mtail1
       rd    0.         
       rs  2.260e-28    
       id    0.         
       rx  160.4213u    
       fn    0.         
    total  2.273e-28    




 element     6:mtail2
       rd    0.         
       rs  2.260e-28    
       id    0.         
       rx  160.4391u    
       fn    0.         
    total  2.273e-28    




 element     7:mbias
       rd    0.         
       rs  2.314e-28    
       id  1.604e-27    
       rx   12.0176m    
       fn    0.         
    total  1.841e-27    




 element     7:m1
       rd    0.         
       rs    0.         
       id  2.793e-28    
       rx    4.4900m    
       fn    0.         
    total  2.836e-28    




 element     7:m2
       rd    0.         
       rs    0.         
       id  2.841e-28    
       rx    4.5283m    
       fn    0.         
    total  2.883e-28    




 element     7:m3
       rd    0.         
       rs  2.010e-28    
       id  2.396e-28    
       rx    4.6332m    
       fn    0.         
    total  4.420e-28    




 element     7:m4
       rd    0.         
       rs  2.016e-28    
       id  2.432e-28    
       rx    4.6681m    
       fn    0.         
    total  4.462e-28    




 element     7:m5
       rd    0.         
       rs    0.         
       id    0.         
       rx   42.5096u    
       fn    0.         
    total    0.         




 element     7:m6
       rd    0.         
       rs    0.         
       id    0.         
       rx   42.4728u    
       fn    0.         
    total    0.         




 element     7:m7
       rd    0.         
       rs    0.         
       id    0.         
       rx  971.2444n    
       fn    0.         
    total    0.         




 element     7:m8
       rd    0.         
       rs    0.         
       id    0.         
       rx   65.9095u    
       fn    0.         
    total    0.         




 element     7:m9
       rd    0.         
       rs    0.         
       id    0.         
       rx   63.3069u    
       fn    0.         
    total    0.         




 element     7:m10
       rd    0.         
       rs    0.         
       id    0.         
       rx   63.3130u    
       fn    0.         
    total    0.         




 element     7:m11
       rd    0.         
       rs    0.         
       id    0.         
       rx   65.9182u    
       fn    0.         
    total    0.         




 element     7:mtail1
       rd    0.         
       rs  2.260e-28    
       id    0.         
       rx  160.4213u    
       fn    0.         
    total  2.273e-28    




 element     7:mtail2
       rd    0.         
       rs  2.260e-28    
       id    0.         
       rx  160.4391u    
       fn    0.         
    total  2.273e-28    




 element     8:mbias
       rd    0.         
       rs  2.314e-28    
       id  1.604e-27    
       rx   12.0176m    
       fn    0.         
    total  1.841e-27    




 element     8:m1
       rd  5.369e-25    
       rs  7.661e-26    
       id  1.739e-24    
       rx  354.2730m    
       fn  4.009e-28    
    total  2.353e-24    




 element     8:m2
       rd    0.         
       rs  3.487e-28    
       id    0.         
       rx    2.4942m    
       fn    0.         
    total  4.360e-28    




 element     8:m3
       rd  7.831e-26    
       rs  4.966e-26    
       id  1.273e-23    
       rx    1.0678     
       fn  9.453e-27    
    total  1.287e-23    




 element     8:m4
       rd    0.         
       rs  2.185e-28    
       id    0.         
       rx    2.0669m    
       fn    0.         
    total  2.684e-28    




 element     8:m5
       rd    0.         
       rs  8.383e-26    
       id    0.         
       rx    2.7816m    
       fn    0.         
    total  8.398e-26    




 element     8:m6
       rd  6.940e-24    
       rs  9.199e-26    
       id  1.925e-23    
       rx    1.4224     
       fn    0.         
    total  2.629e-23    




 element     8:m7
       rd  4.699e-28    
       rs  8.356e-26    
       id  2.518e-27    
       rx   16.2608m    
       fn    0.         
    total  8.655e-26    




 element     8:m8
       rd  1.756e-25    
       rs  2.747e-23    
       id  2.560e-24    
       rx  545.0482m    
       fn  6.175e-28    
    total  3.021e-23    




 element     8:m9
       rd  1.625e-28    
       rs  2.609e-23    
       id  2.318e-24    
       rx  518.1119m    
       fn  4.304e-28    
    total  2.841e-23    




 element     8:m10
       rd  1.656e-28    
       rs    0.         
       id  2.238e-27    
       rx   16.1004m    
       fn    0.         
    total  2.432e-27    




 element     8:m11
       rd    0.         
       rs    0.         
       id    0.         
       rx  526.5324u    
       fn    0.         
    total    0.         




 element     8:mtail1
       rd  1.853e-26    
       rs  1.123e-26    
       id  3.200e-24    
       rx  535.8745m    
       fn  2.711e-27    
    total  3.233e-24    




 element     8:mtail2
       rd    0.         
       rs  2.229e-28    
       id    0.         
       rx  663.6594u    
       fn    0.         
    total  2.287e-28    




 **** total output noise voltage         = 2.544e-22       sq v/hz
                                         =  15.9494p       v/rt hz
      transfer function value:
        v(vout_i)/vvin_i                 =   4.5004u      
      equivalent input noise at vvin_i                        
                                         =   3.5440u       /rt hz



 **** the results of the sqrt of integral (v**2 / freq)
      from fstart upto   10.0000g      hz. using more freq points
      results in more accurate total noise values.

 **** total output noise voltage   =   92.6626u       volts
 **** total equivalent input noise =  333.4086m      




          ***** job concluded
1****** HSPICE -- F-2011.09 32-BIT (Sep  5 2011) winnt ******                   
 ******  
 .title gm_ac

  ******  job statistics summary tnom=  25.000 temp=  27.000 *****

  ******  HSPICE Threads Information  ******

  Command Line Threads Count :     1
  Available CPU Count        :    16
  Actual Threads Count       :     1


  ******  Circuit Statistics  ******
  # nodes       =     244 # elements   =     116
  # resistors   =       7 # capacitors =       6 # inductors   =       0
  # mutual_inds =       0 # vccs       =       0 # vcvs        =       0
  # cccs        =       0 # ccvs       =       0 # volt_srcs   =       4
  # curr_srcs   =       1 # diodes     =       0 # bjts        =       0
  # jfets       =       0 # mosfets    =      98 # U elements  =       0
  # T elements  =       0 # W elements =       0 # B elements  =       0
  # S elements  =       0 # P elements =       0 # va device   =       0
  # vector_srcs =       0


  ******  Runtime Statistics (seconds)  ******

  analysis           time    # points   tot. iter  conv.iter
  op point           0.03           1         243
  ac analysis        0.05          91          91
  readin             0.06
  errchk             0.01
  setup              0.01
  output             0.00


           peak memory used         44.58 megabytes
           total cpu time            0.17 seconds
           total elapsed time        0.65 seconds
           job started at     11:16:21 01/08/2023
           job ended   at     11:16:22 01/08/2023


  lic: Release hspice token(s) 
