 ****** HSPICE -- F-2011.09 32-BIT (Sep  5 2011) winnt ******                   
  Copyright (C) 2011 Synopsys, Inc. All Rights Reserved.                        
  Unpublished-rights reserved under US copyright laws.
  This program is protected by law and is subject to the
  terms and conditions of the license agreement from Synopsys.
  Use of this program is your acceptance to be bound by the
  license agreement. HSPICE is the trademark of Synopsys, Inc.
  Input File: e:\ee\project\spice\2.0\ota_dc.sp                                 
  Command line options: -i e:\ee\project\spice\2.0\ota_dc.sp -o e:\ee\project\spice\2.0\ota_dc.lis
  lic:  
  lic: FLEXlm: v10.8 
  lic: USER:   shabi                HOSTNAME: Kunlin-Yuquan 
  lic: HOSTID: "581122b93f59 346f24e5c2cc 005056c00001 005056c00008 00ffe567be1a
  
  lic: Using FLEXlm license file: 
  lic: E:\EE\A3-H$pice2011.09\hspice2011_crack\hspice2011_crack\license1.dat 
  lic: Checkout 1 hspice 
  lic: License/Maintenance for hspice will expire on 31-dec-2030/2030.12 
  lic: NODE LOCKED license on hostid "581122b93f59 346f24e5c2cc 005056c00001 005
 0
  lic:   
 Init: read install configuration file: E:\EE\Hspice\meta.cfg
  **warning** (E:\EE\project\spice\2.0\ms018.mdl:20) Model n18 device geometries will not be checked against the limits set by lmin, lmax, wmin and wmax. To enable this check, add a period(.) to the model name(i.e. enable model selector).

 **warning**  runlvl smaller than 5, reset to 5  when accurate turned on
  **warning** (e:\ee\project\spice\2.0\ota_dc.sp:3) Global net name, "gnd", in subckt pin list. The pin will be connected to the local net. Recommend to not use global net names in subckt pin lists.

 **warning**  runlvl smaller than 5, reset to 5  when accurate turned on
1****** HSPICE -- F-2011.09 32-BIT (Sep  5 2011) winnt ******                   
 ******  
 .title ota_dc

  ******  circuit name directory
 circuit number to circuit name directory
   number circuitname                     definition         multiplier
        0 main circuit
        1 x1.                             ota                1.00 
1****** HSPICE -- F-2011.09 32-BIT (Sep  5 2011) winnt ******                   
 ******  
 .title ota_dc

  ******  mos   model parameters tnom=  25.000 temp=  25.000 *****
 ***************************************************************************
 ***        model parameters  model name:   0:n18      model type:nmos   ***
 ***************************************************************************

   *** general parameters ***
    deriv=   0.           

   ***  level 49  model parameters  ***

       hspver=    2006.03               level=         49         
      version=       3.24            paramchk=          0         
       apwarn=          1                lite=          0         
       vgslim=          0             binUnit=          2         
       capMod=          3               xpart=          1         
       mobMod=          1              nqsMod=          0         
       stiMod=          0                 elm=          5         
     sfvtflag=          0                 tox=  3.87e-009 meter   
           xj=   1.6e-007 meter       binflag=          0         
         lmin=   1.5e-007 meter          lmax=     1e-005 meter   
         wmin=   1.9e-007 meter          wmax=     0.0001 meter   
         lref=          0 meter          wref=          0 meter   
         lint=1.57571e-008 meter          wint=-1.44505e-009 meter   
        lmult=          1               wmult=          1         
           ll=2.63528e-016                 lln=     1.1206         
           lw=-2.26256e-016                 lwn=       0.92         
          lwl=-2.05767e-022                  wl=-2.36646e-016         
          wln=       1.06                  ww=-3.64097e-014         
          wwn=   0.876847                 wwl=    -4e-021         
          dwg= -5.96e-009 m/V             dwb=   4.5e-009 m/V^1/2 
           xl=   1.8e-008                  xw=          0         
           a0=       0.83                 ags=       0.32 V^-1    
           b0=     6e-008 meter            b1=          0 meter   
         keta=     -0.003 V^-1           voff=     -0.103 V       
        ngate=          0 cm^-3           vbx=          0 V       
          vbm=         -3 V                xt=  1.55e-007 meter   
         vth0=       0.39 V               nch=3.8694e+017 cm^-3   
         nsub=     6e+016 cm^-3           nlx=7.5451e-008 meter   
       gamma1=          0 V^-1/2       gamma2=          0 V^-1/2  
           k1=   0.680104 V^1/2            k2= -0.0499778         
           k3=         10                 k3b=         -3 V^-1    
           w0=5.58201e-007 meter          dvt0=        1.3         
         dvt1=   0.577163                dvt2=  -0.171755 V^-1    
        dvt0w=          0 meter^-1      dvt1w=          0 meter^-1
        dvt2w=          0 V^-1           dsub=        0.4         
         eta0=      0.028                etab=     -0.027 V^-1    
           u0=      0.034 m^2/V/sec         ua= -1.03e-009 m/V     
           ub=2.36667e-018 (m/V)^2          uc=   1.2e-010 V^-1    
         vsat=      82500 m/sec            a1=          0 v^-1    
           a2=       0.99               delta=       0.01 V       
         rdsw=    55.5497 ohm-um         prwg=        0.4 V^-1    
         prwb=      -0.24 V^-1/2           wr=          1         
         pclm=        1.2             pdiblc1=      0.025         
      pdiblc2=     0.0038             pdiblcb=          0 V^-1    
       pscbe1=  3.45e+008 V/m          pscbe2=     1e-006 V/m     
        drout=       0.56                pvag=          0         
      nfactor=       1.25                cdsc=          0 f/m^2   
        cdscb=          0 f/V/m^2       cdscd=     0.0001 f/V/m^2 
          cit=          0 f/m^2        alpha0=1.7754e-008 m/V     
        beta0=    11.1684 V               dlc=   8.5e-009 meter   
          dwc=   4.5e-008 meter           clc=     1e-007 meter   
          cle=        0.6                cgso=   3.7e-010 f/m     
         cgdo=   3.7e-010 f/m            cgbo=8.03054e-010 f/m     
         cgsl=          0 f/m            cgdl=          0 f/m     
       ckappa=        0.6                  cf=          0 f/m     
         acde=       0.64 m/V            moin=         24 V^1/2   
         toxm=  3.87e-009 m            dtoxcv=          0 m       
          vfb (not used)                alpha1=     0.1764 1/V     
         ijth=        0.1 A              noff=     1.2025         
       voffcv=          0                 tcj=   0.000842 1/K     
        tcjsw=   0.000669 1/K          tcjswg=   0.000669 1/K     
          tpb=    0.00147 V/K           tpbsw=   0.000868 V/K     
       tpbswg=   0.000868 V/K             llc=2.63528e-016         
          lwc=-2.26256e-016                lwlc=-2.05767e-022         
          wlc=-2.36646e-016                 wwc=-3.64097e-014         
         wwlc=    -4e-021                tnom=     298.15 K       
          kt1=  -0.257287 V              kt1l=    -1e-009         
          kt2=      -0.04                 ute=      -1.55         
          ua1=  1.76e-009 m/V             ub1=  -2.4e-018 (m/V)^2 
          uc1=    -1e-010 m/V^2            at=      37000 m/s     
          prt=        -55         
          using Berkeley noise model       noiMod=          2         
         noia=8.2282e+019                noib=      13327         
         noic=-2.4937e-014                  em=1.7767e+007         
           ef=      0.818                  af=          1         
           kf=          0              gdsnoi=-1.23457e-029         
          using Berkeley diodes          using ACM 
          acm=        12                 hdif=    2e-007 meter    
         ldif=    7e-008 meter             js= 3.52e-007 amp/m^2  
          jsw=    3e-013 amp/m            xti=      3.25          
           nj=    1.0392                   cj=  0.000968 f/m^2    
           mj=     0.346                   pb=       0.7 V        
         cjsw= 7.95e-011 f/m             mjsw=     0.538          
          php (not used)                  pbsw=         1 V        
       cjgate (not used)                 cjswg= 4.18e-010 f/m      
        mjswg=     0.538                pbswg=         1 V        
        lketa=  -1.7e-009               lvoff=  -3.3e-009         
          lu0=2.30577e-011                 lua=7.73498e-019         
     lnfactor=   4.5e-008                lua1=     6e-018         
         luc1=   1.7e-017             lalpha1= 7.625e-009         
        wvth0=-2.97095e-008                 wk1=-2.48968e-008         
          wu0=-3.10097e-009                wua1=  -1.1e-016         
        pvth0=     5e-016                 pk1=   1.3e-015         
          pua=    -1e-024                 puc=   1.5e-024         
        pvsat=  -8.3e-010               ppclm=     3e-015         
     ppdiblc2=   2.7e-016                pua1=    -5e-025         
         puc1=    -3e-024                 pat=  -7.5e-010         
 ***************************************************************************
 ***        model parameters  model name:   0:p18      model type:pmos   ***
 ***************************************************************************

   *** general parameters ***
    deriv=   0.           

   ***  level 49  model parameters  ***

       hspver=    2006.03               level=         49         
      version=       3.24            paramchk=          0         
       apwarn=          1                lite=          0         
       vgslim=          0             binUnit=          2         
       capMod=          3               xpart=          1         
       mobMod=          1              nqsMod=          0         
       stiMod=          0                 elm=          5         
     sfvtflag=          0                 tox=  3.74e-009 meter   
           xj=   1.7e-007 meter       binflag=          0         
         lmin=   1.5e-007 meter          lmax=     1e-005 meter   
         wmin=   1.9e-007 meter          wmax=     0.0001 meter   
         lref=          0 meter          wref=          0 meter   
         lint=     1e-008 meter          wint=     8e-009 meter   
        lmult=          1               wmult=          1         
           ll=   3.4e-015                 lln=          1         
           lw= -3.36e-016                 lwn=          1         
          lwl=          0                  wl=3.59042e-015         
          wln=      1.045                  ww=  -1.9e-015         
          wwn=          1                 wwl=-1.1205e-021         
          dwg=-1.7362e-008 m/V             dwb=     2e-008 m/V^1/2 
           xl=  -5.7e-009                  xw=          0         
           a0=          1                 ags=        0.2 V^-1    
           b0=   6.3e-008 meter            b1=          0 meter   
         keta=       0.02 V^-1           voff=     -0.095 V       
        ngate= 3.168e+020 cm^-3           vbx=          0 V       
          vbm=         -3 V                xt=  1.55e-007 meter   
         vth0=     -0.402 V               nch=   5.5e+017 cm^-3   
         nsub=     6e+016 cm^-3           nlx=     9e-008 meter   
       gamma1=          0 V^-1/2       gamma2=          0 V^-1/2  
           k1=   0.587239 V^1/2            k2= 0.00709069         
           k3=        2.6                 k3b=     2.4862 V^-1    
           w0=          0 meter          dvt0=   0.719493         
         dvt1=   0.246744                dvt2=  0.0780897 V^-1    
        dvt0w=          0 meter^-1      dvt1w=     800000 meter^-1
        dvt2w=          0 V^-1           dsub=       0.56         
         eta0=       0.04                etab=     -0.025 V^-1    
           u0=   0.008661 m^2/V/sec         ua=  2.85e-010 m/V     
           ub=     1e-018 (m/V)^2          uc= -4.77e-011 V^-1    
         vsat=     100000 m/sec            a1=          0 v^-1    
           a2=       0.99               delta=       0.01 V       
         rdsw=        455 ohm-um         prwg=          0 V^-1    
         prwb=       -0.4 V^-1/2           wr=          1         
         pclm=        0.7             pdiblc1=          0         
      pdiblc2=      0.007             pdiblcb=          0 V^-1    
       pscbe1=     4e+008 V/m          pscbe2=     1e-007 V/m     
        drout=       0.56                pvag=          0         
      nfactor=        0.9                cdsc=          0 f/m^2   
        cdscb=          0 f/V/m^2       cdscd=          0 f/V/m^2 
          cit=          0 f/m^2        alpha0=     7e-008 m/V     
        beta0=    22.8424 V               dlc=  -1.5e-009 meter   
          dwc=     8e-009 meter           clc=     1e-007 meter   
          cle=        0.6                cgso=   4.2e-010 f/m     
         cgdo=   4.2e-010 f/m            cgbo=1.47728e-010 f/m     
         cgsl=          0 f/m            cgdl=          0 f/m     
       ckappa=        0.6                  cf=          0 f/m     
         acde=   0.850508 m/V            moin=    14.9534 V^1/2   
         toxm=  3.74e-009 m            dtoxcv=          0 m       
          vfb (not used)                alpha1=    7.04917 1/V     
         ijth=        0.1 A              noff=    1.43182         
       voffcv=          0                 tcj=   0.000876 1/K     
        tcjsw=   0.000745 1/K          tcjswg=   0.000745 1/K     
          tpb=    0.00153 V/K           tpbsw=    0.00117 V/K     
       tpbswg=    0.00117 V/K             llc=   3.4e-015         
          lwc= -3.36e-016                lwlc=          0         
          wlc=3.59042e-015                 wwc=  -1.9e-015         
         wwlc=-1.1205e-021                tnom=     298.15 K       
          kt1=  -0.257701 V              kt1l=    -8e-009         
          kt2= -0.0309799                 ute=   -1.27036         
          ua1=5.38663e-010 m/V             ub1=-2.071e-018 (m/V)^2 
          uc1=2.06097e-011 m/V^2            at=      10000 m/s     
          prt=         90         
          using Berkeley noise model       noiMod=          2         
         noia=3.3617e+018                noib=     195360         
         noic=5.2658e-012                  em=6.2548e+007         
           ef=     1.1307                  af=          1         
           kf=          0              gdsnoi=-1.23457e-029         
          using Berkeley diodes          using ACM 
          acm=        12                 hdif=    2e-007 meter    
         ldif=    7e-008 meter             js= 1.66e-007 amp/m^2  
          jsw=  1.2e-013 amp/m            xti=       4.5          
           nj=    1.0384                   cj=   0.00107 f/m^2    
           mj=     0.415                   pb=     0.817 V        
         cjsw= 9.89e-011 f/m             mjsw=     0.489          
          php (not used)                  pbsw=         1 V        
       cjgate (not used)                 cjswg= 5.07e-010 f/m      
        mjswg=     0.489                pbswg=         1 V        
        lketa=  -8.5e-009               lvoff=  -1.7e-009         
          lk1=3.55321e-009                 lu0=    -2e-011         
          lua=   5.5e-018            lnfactor=     1e-007         
       lbeta0=  -7.5e-008                lkt2=    -3e-009         
        wvoff=    -2e-009               wvth0=1.26754e-008         
          wu0=1.38154e-010                 wuc=3.1668e-017         
         wua1=   1.1e-016               pketa=     5e-016         
        pvoff=    -1e-016               pvth0= -1.25e-015         
          pua=    -2e-024                 puc=  -2.5e-024         
     pnfactor=    -5e-015                pkt2=-6.53317e-016         
         pua1= -2.37e-024                 pat=    -1e-009         
  **warning** (e:\ee\project\spice\2.0\ota_dc.sp:25) Both nodes of element vgnd are connected together; Line ignored.
 

  **warning** (e:\ee\project\spice\2.0\ota_dc.sp:38) Unable to find referenced node vo; Output variable ignored. Specify a valid node.
  **warning** (e:\ee\project\spice\2.0\ota_dc.sp:38) .print/.probe statement contains unused output; the unused output is ignored.
  
      
 **info** set option symb=1 internally to help for convergence.
 *****************************************************************
 ******  option summary
 ******
 runlvl  = 5         bypass  = 2         
  Opening plot unit= 79
 file=e:\ee\project\spice\2.0\ota_dc.pa0                                       

 **info** dc convergence successful
 you can increase the efficiency of the
 operating point calculation by setting dcon= 1
 in the .option statement
1****** HSPICE -- F-2011.09 32-BIT (Sep  5 2011) winnt ******                   
 ******  
 .title ota_dc

  ******  operating point information tnom=  25.000 temp=  27.000 *****
 ***** operating point status is all       simulation time is     0.     
    node    =voltage      node    =voltage      node    =voltage

 +0:ibias   = 581.4676m 0:vcmfb   = 900.0000m 0:vdd     =   1.8000 
 +0:vin     = 900.0000m 0:vip     = 900.0000m 0:voutn   = 899.8759m
 +0:voutp   = 899.8759m 1:net0124 =   1.1936  1:net053  = 339.3161m
 +1:net065  = 339.3161m 1:net29   = 301.8932m 1:net39   = 301.8932m


 **** voltage sources

 subckt                                              
 element  0:vvcmfb   0:vvdd     0:vvin     0:vvip    
  volts    900.0000m    1.8000   900.0000m  900.0000m
  current    0.      -491.9989u    0.         0.     
  power      0.       885.5981u    0.         0.     

     total voltage source power dissipation=  885.5981u       watts



 **** current sources

 subckt             
 element  0:iibias  
  volts      1.2185 
  current  100.0000u
  power   -121.8532u


     total current source power dissipation=-121.8532u       watts

 **** resistors

 subckt   x1        
 element  1:r1      
  r value    9.0000k
  v drop    81.6569f
  current    9.0730a
  power      0.     



 **** mosfets


 subckt   x1         x1         x1         x1         x1         x1        
 element  1:mbias    1:m1       1:m2       1:m3       1:m4       1:m5      
 model    0:n18      0:n18      0:n18      0:n18      0:n18      0:p18     
 region     Saturati   Saturati   Saturati   Saturati   Saturati   Saturati
  id       100.0000u   97.7551u   97.7551u   97.7551u   97.7551u  -97.7551u
  ibs     -1.360e-19  -76.7802a  -76.7802a -1.330e-19 -1.330e-19  3.689e-19
  ibd      -38.8362a -452.8551a -452.8551a  -20.7218a  -20.7218a   74.4811a
  vgs      581.4676m  598.1068m  598.1068m  581.4676m  581.4676m -606.4433m
  vds      581.4676m  597.9827m  597.9827m  301.8932m  301.8932m -900.1241m
  vbs        0.      -301.8932m -301.8932m    0.         0.         0.     
  vth      412.5916m  486.4418m  486.4418m  412.5935m  412.5935m -412.9211m
  vdsat    169.3377m  132.3257m  132.3257m  169.3392m  169.3392m -186.7633m
  vod      168.8760m  111.6649m  111.6649m  168.8741m  168.8741m -193.5222m
  beta       6.8061m   12.7436m   12.7436m    6.8061m    6.8061m    5.5146m
  gam eff  773.0806m  788.7819m  788.7819m  773.0804m  773.0804m  575.5484m
  gm         1.0117m    1.3176m    1.3176m  983.8661u  983.8661u  900.9115u
  gds        5.2290u    3.9065u    3.9065u   14.9548u   14.9548u    1.9688u
  gmb      300.0504u  334.7898u  334.7898u  291.9367u  291.9367u  289.4612u
  cdtot     21.6401f   76.6373f   76.6373f   24.3319f   24.3319f  186.7864f
  cgtot    138.2412f  926.4853f  926.4853f  138.8740f  138.8740f    2.0396p
  cstot    159.4950f    1.0164p    1.0164p  159.2724f  159.2724f    2.3587p
  cbtot     78.5870f  415.0097f  415.0097f   80.1289f   80.1289f  973.7843f
  cgs      115.9883f  783.4708f  783.4708f  116.2661f  116.2661f    1.7975p
  cgd        7.4300f   27.9929f   27.9929f    7.9683f    7.9683f   66.6359f



 subckt   x1         x1         x1         x1         x1         x1        
 element  1:m6       1:m7       1:m8       1:m9       1:m10      1:m11     
 model    0:p18      0:p18      0:n18      0:n18      0:n18      0:n18     
 region     Saturati   Saturati   Saturati   Saturati   Saturati   Saturati
  id       -97.7551u  -97.1541u   49.6639u   48.5771u   48.5771u   49.6639u
  ibs      3.689e-19  3.666e-19  -76.7810a  -76.7810a  -76.7810a  -76.7810a
  ibd       74.4811a   67.8020a   -3.4886n   -2.6097p   -2.6097p   -3.4886n
  vgs     -606.4433m -606.4433m  560.5598m  560.6839m  560.6839m  560.5598m
  vds     -900.1241m -606.4433m    1.4607   854.2406m  854.2406m    1.4607 
  vbs        0.         0.      -339.3161m -339.3161m -339.3161m -339.3161m
  vth     -412.9211m -412.9208m  496.1389m  496.1384m  496.1384m  496.1389m
  vdsat   -186.7633m -186.7642m  100.3445m  100.4244m  100.4244m  100.3445m
  vod     -193.5222m -193.5225m   64.4210m   64.5455m   64.5455m   64.4210m
  beta       5.5146m    5.5146m   12.7809m   12.7808m   12.7808m   12.7809m
  gam eff  575.5484m  575.5484m  790.4799m  790.4799m  790.4799m  790.4799m
  gm       900.9115u  895.9049u  838.4561u  824.0579u  824.0579u  838.4561u
  gds        1.9688u    2.2003u    1.9383u    2.0188u    2.0188u    1.9383u
  gmb      289.4612u  287.7639u  209.9894u  206.4015u  206.4015u  209.9894u
  cdtot    186.7864f  198.5577f   67.9413f   72.9384f   72.9384f   67.9413f
  cgtot      2.0396p    2.0409p  851.2006f  851.6834f  851.6834f  851.2006f
  cstot      2.3587p    2.3580p  902.4438f  902.7445f  902.7445f  902.4438f
  cbtot    973.7843f  984.0469f  399.5026f  404.4460f  404.4460f  399.5026f
  cgs        1.7975p    1.7984p  689.3000f  689.8676f  689.8676f  689.3000f
  cgd       66.6359f   67.4074f   27.7270f   27.7678f   27.7678f   27.7270f



 subckt   x1         x1        
 element  1:mtail1   1:mtail2  
 model    0:n18      0:n18     
 region     Saturati   Saturati
  id        98.2409u   98.2409u
  ibs     -1.337e-19 -1.337e-19
  ibd      -20.7232a  -20.7232a
  vgs      581.4676m  581.4676m
  vds      339.3161m  339.3161m
  vbs        0.         0.     
  vth      412.5933m  412.5933m
  vdsat    169.3387m  169.3387m
  vod      168.8743m  168.8743m
  beta       6.8061m    6.8061m
  gam eff  773.0804m  773.0804m
  gm       991.0902u  991.0902u
  gds       11.4113u   11.4113u
  gmb      294.0395u  294.0395u
  cdtot     23.6369f   23.6369f
  cgtot    138.6602f  138.6602f
  cstot    159.3312f  159.3312f
  cbtot     79.8717f   79.8717f
  cgs      116.1931f  116.1931f
  cgd        7.7656f    7.7656f







 ****     small-signal transfer characteristics

      v(voutn)/vvin                            =   33.5990 
      input resistance at             vvin     =  1.000e+20
      output resistance at v(voutn)            =  204.3222k



1****** HSPICE -- F-2011.09 32-BIT (Sep  5 2011) winnt ******                   
 ******  
 .title ota_dc

  ******  noise analysis tnom=  25.000 temp=  27.000 *****

     frequency =  10.0000       hz




 **** resistor squared noise voltages (sq v/hz)




 element     1:r1
       rs  233.7848f    
      1/f    0.         
    total  233.7848f    
       rx  356.2811k    



 **** mosfet squared noise voltages (sq v/hz)




 element     1:mbias
       rd    0.         
       rs  6.381e-25    
       id  1.392e-22    
       rx    3.5405     
       fn    4.3635a    
    total    4.3637a    




 element     1:m1
       rd  2.849e-22    
       rs   50.8190a    
       id    9.0091f    
       rx   25.4999k    
       fn   47.7910p    
    total   47.8000p    




 element     1:m2
       rd  2.849e-22    
       rs   50.8847a    
       id    9.0167f    
       rx   25.5107k    
       fn   47.8313p    
    total   47.8404p    




 element     1:m3
       rd  2.057e-19    
       rs    1.5344f    
       id  350.2365f    
       rx  177.1325k    
       fn    5.9887n    
    total    5.9890n    




 element     1:m4
       rd  2.084e-19    
       rs    1.5551f    
       id  354.9751f    
       rx  178.3267k    
       fn    6.0697n    
    total    6.0700n    




 element     1:m5
       rd  3.870e-21    
       rs    1.4801f    
       id  395.8677f    
       rx  203.9547k    
       fn  642.2424p    
    total  642.6398p    




 element     1:m6
       rd  3.870e-21    
       rs    1.4627f    
       id  391.2013f    
       rx  202.7491k    
       fn  634.6718p    
    total  635.0645p    




 element     1:m7
       rd  1.781e-25    
       rs  5.125e-20    
       id   13.8683a    
       rx    1.2067k    
       fn   21.8303f    
    total   21.8442f    




 element     1:m8
       rd  3.788e-26    
       rs  1.112e-20    
       id    3.0497a    
       rx  594.8936     
       fn   16.9297f    
    total   16.9328f    




 element     1:m9
       rd  4.656e-26    
       rs  1.137e-20    
       id    3.2314a    
       rx  611.7818     
       fn   13.8110f    
    total   13.8143f    




 element     1:m10
       rd  4.656e-26    
       rs  1.137e-20    
       id    3.2314a    
       rx  611.7818     
       fn   13.8110f    
    total   13.8143f    




 element     1:m11
       rd  3.788e-26    
       rs  1.112e-20    
       id    3.0497a    
       rx  594.8936     
       fn   16.9297f    
    total   16.9328f    




 element     1:mtail1
       rd  1.340e-24    
       rs  1.744e-20    
       id    3.9399a    
       rx  594.5925     
       fn   76.8210f    
    total   76.8249f    




 element     1:mtail2
       rd  1.340e-24    
       rs  1.744e-20    
       id    3.9399a    
       rx  594.5925     
       fn   76.8210f    
    total   76.8249f    




 **** total output noise voltage         =  13.4329n       sq v/hz
                                         = 115.9003u       v/rt hz
      transfer function value:
        v(voutp)/vvip                    =  33.5990       
      equivalent input noise at vvip                          
                                         =   3.4495u       /rt hz



 **** the results of the sqrt of integral (v**2 / freq)
      from fstart upto   10.0000       hz. using more freq points
      results in more accurate total noise values.

 **** total output noise voltage   =    0.            volts
 **** total equivalent input noise =    0.           



1****** HSPICE -- F-2011.09 32-BIT (Sep  5 2011) winnt ******                   
 ******  
 .title ota_dc

  ******  noise analysis tnom=  25.000 temp=  27.000 *****

     frequency = 100.0000       hz




 **** resistor squared noise voltages (sq v/hz)




 element     1:r1
       rs  233.7848f    
      1/f    0.         
    total  233.7848f    
       rx  356.2811k    



 **** mosfet squared noise voltages (sq v/hz)




 element     1:mbias
       rd    0.         
       rs  6.381e-25    
       id  1.392e-22    
       rx    3.5405     
       fn  6.635e-19    
    total  6.636e-19    




 element     1:m1
       rd  2.849e-22    
       rs   50.8190a    
       id    9.0091f    
       rx   25.4999k    
       fn    7.2668p    
    total    7.2759p    




 element     1:m2
       rd  2.849e-22    
       rs   50.8628a    
       id    9.0167f    
       rx   25.5107k    
       fn    7.2730p    
    total    7.2821p    




 element     1:m3
       rd  2.071e-19    
       rs    1.5344f    
       id  350.2365f    
       rx  177.1325k    
       fn  910.6051p    
    total  910.9569p    




 element     1:m4
       rd  2.084e-19    
       rs    1.5551f    
       id  354.9751f    
       rx  178.3267k    
       fn  922.9255p    
    total  923.2820p    




 element     1:m5
       rd  4.077e-21    
       rs    1.4801f    
       id  395.8677f    
       rx  203.9547k    
       fn   47.5334p    
    total   47.9308p    




 element     1:m6
       rd  4.077e-21    
       rs    1.4627f    
       id  391.2013f    
       rx  202.7491k    
       fn   46.9731p    
    total   47.3658p    




 element     1:m7
       rd  1.781e-25    
       rs  5.125e-20    
       id   13.8683a    
       rx    1.2067k    
       fn    1.6157f    
    total    1.6296f    




 element     1:m8
       rd  3.788e-26    
       rs  1.113e-20    
       id    3.0497a    
       rx  594.8936     
       fn    2.5742f    
    total    2.5773f    




 element     1:m9
       rd  4.656e-26    
       rs  1.137e-20    
       id    3.2314a    
       rx  611.7819     
       fn    2.1000f    
    total    2.1033f    




 element     1:m10
       rd  4.656e-26    
       rs  1.137e-20    
       id    3.2314a    
       rx  611.7819     
       fn    2.1000f    
    total    2.1033f    




 element     1:m11
       rd  3.788e-26    
       rs  1.112e-20    
       id    3.0497a    
       rx  594.8936     
       fn    2.5742f    
    total    2.5773f    




 element     1:mtail1
       rd  1.353e-24    
       rs  1.744e-20    
       id    3.9399a    
       rx  594.5925     
       fn   11.6810f    
    total   11.6850f    




 element     1:mtail2
       rd  1.353e-24    
       rs  1.744e-20    
       id    3.9399a    
       rx  594.5924     
       fn   11.6810f    
    total   11.6849f    




 **** total output noise voltage         =   1.9444n       sq v/hz
                                         =  44.0949u       v/rt hz
      transfer function value:
        v(voutp)/vvip                    =  33.5990       
      equivalent input noise at vvip                          
                                         =   1.3124u       /rt hz



 **** the results of the sqrt of integral (v**2 / freq)
      from fstart upto  100.0000       hz. using more freq points
      results in more accurate total noise values.

 **** total output noise voltage   =  612.9735u       volts
 **** total equivalent input noise =   18.2438u      



1****** HSPICE -- F-2011.09 32-BIT (Sep  5 2011) winnt ******                   
 ******  
 .title ota_dc

  ******  noise analysis tnom=  25.000 temp=  27.000 *****

     frequency =   1.0000k      hz




 **** resistor squared noise voltages (sq v/hz)




 element     1:r1
       rs  233.7837f    
      1/f    0.         
    total  233.7837f    
       rx  356.2802k    



 **** mosfet squared noise voltages (sq v/hz)




 element     1:mbias
       rd    0.         
       rs  6.383e-25    
       id  1.392e-22    
       rx    3.5409     
       fn  1.009e-19    
    total  1.011e-19    




 element     1:m1
       rd  2.849e-22    
       rs   50.8411a    
       id    9.0090f    
       rx   25.4998k    
       fn    1.1050p    
    total    1.1140p    




 element     1:m2
       rd  2.849e-22    
       rs   50.8630a    
       id    9.0166f    
       rx   25.5106k    
       fn    1.1059p    
    total    1.1150p    




 element     1:m3
       rd  2.057e-19    
       rs    1.5344f    
       id  350.2349f    
       rx  177.1321k    
       fn  138.4612p    
    total  138.8130p    




 element     1:m4
       rd  2.098e-19    
       rs    1.5551f    
       id  354.9734f    
       rx  178.3263k    
       fn  140.3345p    
    total  140.6911p    




 element     1:m5
       rd  4.077e-21    
       rs    1.4801f    
       id  395.8658f    
       rx  203.9542k    
       fn    3.5180p    
    total    3.9154p    




 element     1:m6
       rd  4.077e-21    
       rs    1.4627f    
       id  391.1995f    
       rx  202.7486k    
       fn    3.4765p    
    total    3.8692p    




 element     1:m7
       rd  1.781e-25    
       rs  5.125e-20    
       id   13.8683a    
       rx    1.2067k    
       fn  119.5801a    
    total  133.4996a    




 element     1:m8
       rd  3.793e-26    
       rs  1.112e-20    
       id    3.0497a    
       rx  594.8946     
       fn  391.4271a    
    total  394.4879a    




 element     1:m9
       rd  4.656e-26    
       rs  1.137e-20    
       id    3.2313a    
       rx  611.7811     
       fn  319.3187a    
    total  322.5615a    




 element     1:m10
       rd  4.656e-26    
       rs  1.137e-20    
       id    3.2314a    
       rx  611.7829     
       fn  319.3206a    
    total  322.5634a    




 element     1:m11
       rd  3.792e-26    
       rs  1.113e-20    
       id    3.0496a    
       rx  594.8928     
       fn  391.4247a    
    total  394.4855a    




 element     1:mtail1
       rd  1.353e-24    
       rs  1.744e-20    
       id    3.9399a    
       rx  594.5935     
       fn    1.7762f    
    total    1.7801f    




 element     1:mtail2
       rd  1.353e-24    
       rs  1.744e-20    
       id    3.9399a    
       rx  594.5917     
       fn    1.7761f    
    total    1.7801f    




 **** total output noise voltage         = 289.7565p       sq v/hz
                                         =  17.0222u       v/rt hz
      transfer function value:
        v(voutp)/vvip                    =  33.5990       
      equivalent input noise at vvip                          
                                         = 506.6297n       /rt hz



 **** the results of the sqrt of integral (v**2 / freq)
      from fstart upto    1.0000k      hz. using more freq points
      results in more accurate total noise values.

 **** total output noise voltage   =  963.5194u       volts
 **** total equivalent input noise =   28.6770u      



1****** HSPICE -- F-2011.09 32-BIT (Sep  5 2011) winnt ******                   
 ******  
 .title ota_dc

  ******  noise analysis tnom=  25.000 temp=  27.000 *****

     frequency =  10.0000k      hz




 **** resistor squared noise voltages (sq v/hz)




 element     1:r1
       rs  233.6768f    
      1/f    0.         
    total  233.6768f    
       rx  356.1988k    



 **** mosfet squared noise voltages (sq v/hz)




 element     1:mbias
       rd    0.         
       rs  6.540e-25    
       id  1.426e-22    
       rx    3.5843     
       fn  1.572e-20    
    total  1.587e-20    




 element     1:m1
       rd  2.849e-22    
       rs   50.7988a    
       id    9.0049f    
       rx   25.4940k    
       fn  167.9365f    
    total  176.9922f    




 element     1:m2
       rd  2.849e-22    
       rs   50.8426a    
       id    9.0125f    
       rx   25.5048k    
       fn  168.0785f    
    total  177.1418f    




 element     1:m3
       rd  2.058e-19    
       rs    1.5337f    
       id  350.0747f    
       rx  177.0916k    
       fn   21.0441p    
    total   21.3957p    




 element     1:m4
       rd  2.085e-19    
       rs    1.5544f    
       id  354.8111f    
       rx  178.2855k    
       fn   21.3288p    
    total   21.6851p    




 element     1:m5
       rd  4.077e-21    
       rs    1.4794f    
       id  395.6848f    
       rx  203.9076k    
       fn  260.2545f    
    total  657.4187f    




 element     1:m6
       rd  4.078e-21    
       rs    1.4620f    
       id  391.0206f    
       rx  202.7022k    
       fn  257.1867f    
    total  649.6693f    




 element     1:m7
       rd  1.781e-25    
       rs  5.125e-20    
       id   13.8683a    
       rx    1.2067k    
       fn    8.8503a    
    total   22.7699a    




 element     1:m8
       rd  4.213e-26    
       rs  1.112e-20    
       id    3.0507a    
       rx  594.9988     
       fn   59.5392a    
    total   62.6010a    




 element     1:m9
       rd  4.153e-26    
       rs  1.136e-20    
       id    3.2305a    
       rx  611.7058     
       fn   48.5420a    
    total   51.7839a    




 element     1:m10
       rd  4.153e-26    
       rs  1.137e-20    
       id    3.2325a    
       rx  611.8870     
       fn   48.5707a    
    total   51.8146a    




 element     1:m11
       rd  4.115e-26    
       rs  1.113e-20    
       id    3.0489a    
       rx  594.8182     
       fn   59.5031a    
    total   62.5631a    




 element     1:mtail1
       rd  1.353e-24    
       rs  1.745e-20    
       id    3.9413a    
       rx  594.6972     
       fn  270.1673a    
    total  274.1260a    




 element     1:mtail2
       rd  1.340e-24    
       rs  1.744e-20    
       id    3.9389a    
       rx  594.5174     
       fn  270.0039a    
    total  273.9602a    




 **** total output noise voltage         =  44.9765p       sq v/hz
                                         =   6.7065u       v/rt hz
      transfer function value:
        v(voutp)/vvip                    =  33.5913       
      equivalent input noise at vvip                          
                                         = 199.6486n       /rt hz



 **** the results of the sqrt of integral (v**2 / freq)
      from fstart upto   10.0000k      hz. using more freq points
      results in more accurate total noise values.

 **** total output noise voltage   =    1.3293m       volts
 **** total equivalent input noise =   39.5656u      



1****** HSPICE -- F-2011.09 32-BIT (Sep  5 2011) winnt ******                   
 ******  
 .title ota_dc

  ******  noise analysis tnom=  25.000 temp=  27.000 *****

     frequency = 100.0000k      hz




 **** resistor squared noise voltages (sq v/hz)




 element     1:r1
       rs  223.4555f    
      1/f    0.         
    total  223.4555f    
       rx  348.3213k    



 **** mosfet squared noise voltages (sq v/hz)




 element     1:mbias
       rd    0.         
       rs  2.228e-24    
       id  4.859e-22    
       rx    6.6152     
       fn  8.143e-21    
    total  8.631e-21    




 element     1:m1
       rd  2.872e-22    
       rs   48.5861a    
       id    8.6111f    
       rx   24.9303k    
       fn   24.4189f    
    total   33.0786f    




 element     1:m2
       rd  2.886e-22    
       rs   48.6082a    
       id    8.6183f    
       rx   24.9408k    
       fn   24.4393f    
    total   33.1063f    




 element     1:m3
       rd  1.970e-19    
       rs    1.4666f    
       id  334.7639f    
       rx  173.1756k    
       fn    3.0599p    
    total    3.3961p    




 element     1:m4
       rd  1.995e-19    
       rs    1.4864f    
       id  339.2896f    
       rx  174.3423k    
       fn    3.1013p    
    total    3.4420p    




 element     1:m5
       rd  3.959e-21    
       rs    1.4147f    
       id  378.3754f    
       rx  199.3977k    
       fn   18.4192f    
    total  398.2094f    




 element     1:m6
       rd  3.758e-21    
       rs    1.3980f    
       id  373.9188f    
       rx  198.2200k    
       fn   18.2023f    
    total  393.5192f    




 element     1:m7
       rd  1.784e-25    
       rs  5.125e-20    
       id   13.8684a    
       rx    1.2067k    
       fn  6.550e-19    
    total   14.5747a    




 element     1:m8
       rd  4.435e-25    
       rs  1.086e-20    
       id    3.1529a    
       rx  604.8784     
       fn    9.3564a    
    total   12.5201a    




 element     1:m9
       rd  4.155e-26    
       rs  1.110e-20    
       id    3.1544a    
       rx  604.4546     
       fn    7.2071a    
    total   10.3726a    




 element     1:m10
       rd  4.709e-26    
       rs  1.174e-20    
       id    3.3375a    
       rx  621.7507     
       fn    7.6254a    
    total   10.9747a    




 element     1:m11
       rd  3.503e-25    
       rs  1.150e-20    
       id    2.9758a    
       rx  587.6463     
       fn    8.8309a    
    total   11.8182a    




 element     1:mtail1
       rd  1.401e-24    
       rs  1.803e-20    
       id    4.0727a    
       rx  604.5334     
       fn   42.4504a    
    total   46.5411a    




 element     1:mtail2
       rd  1.319e-24    
       rs  1.702e-20    
       id    3.8447a    
       rx  587.3689     
       fn   40.0740a    
    total   43.9358a    




 **** total output noise voltage         =   7.9197p       sq v/hz
                                         =   2.8142u       v/rt hz
      transfer function value:
        v(voutp)/vvip                    =  32.8484       
      equivalent input noise at vvip                          
                                         =  85.6722n       /rt hz



 **** the results of the sqrt of integral (v**2 / freq)
      from fstart upto  100.0000k      hz. using more freq points
      results in more accurate total noise values.

 **** total output noise voltage   =    1.7746m       volts
 **** total equivalent input noise =   52.9518u      



1****** HSPICE -- F-2011.09 32-BIT (Sep  5 2011) winnt ******                   
 ******  
 .title ota_dc

  ******  noise analysis tnom=  25.000 temp=  27.000 *****

     frequency =   1.0000x      hz




 **** resistor squared noise voltages (sq v/hz)




 element     1:r1
       rs   41.5795f    
      1/f    0.         
    total   41.5795f    
       rx  150.2533k    



 **** mosfet squared noise voltages (sq v/hz)




 element     1:mbias
       rd  2.494e-27    
       rs  1.597e-22    
       id  3.483e-20    
       rx   56.0057     
       fn  8.875e-20    
    total  1.237e-19    




 element     1:m1
       rd  1.014e-22    
       rs    9.0393a    
       id    1.6042f    
       rx   10.7603k    
       fn  691.6995a    
    total    2.3049f    




 element     1:m2
       rd  1.014e-22    
       rs    9.0475a    
       id    1.6042f    
       rx   10.7604k    
       fn  691.7173a    
    total    2.3050f    




 element     1:m3
       rd  3.673e-20    
       rs  273.0533a    
       id   62.3276f    
       rx   74.7236k    
       fn   86.6262f    
    total  149.2269f    




 element     1:m4
       rd  3.720e-20    
       rs  276.4518a    
       id   63.1033f    
       rx   75.1871k    
       fn   87.7043f    
    total  151.0841f    




 element     1:m5
       rd  9.603e-22    
       rs  263.1944a    
       id   70.3767f    
       rx   85.9950k    
       fn  253.5582a    
    total   70.8934f    




 element     1:m6
       rd  9.603e-22    
       rs  260.2152a    
       id   69.6137f    
       rx   85.5276k    
       fn  250.8093a    
    total   70.1247f    




 element     1:m7
       rd  2.021e-25    
       rs  5.128e-20    
       id   13.8757a    
       rx    1.2070k    
       fn  4.851e-20    
    total   13.9755a    




 element     1:m8
       rd  7.590e-24    
       rs  6.140e-21    
       id    4.9727a    
       rx  759.6457     
       fn    2.2438a    
    total    7.2227a    




 element     1:m9
       rd  2.896e-26    
       rs  6.363e-21    
       id    1.8006a    
       rx  456.6792     
       fn  6.255e-19    
    total    2.4325a    




 element     1:m10
       rd  8.365e-26    
       rs  1.829e-20    
       id    5.2085a    
       rx  776.7116     
       fn    1.8095a    
    total    7.0362a    




 element     1:m11
       rd  5.848e-24    
       rs  1.807e-20    
       id    1.6767a    
       rx  441.1021     
       fn  7.566e-19    
    total    2.4513a    




 element     1:mtail1
       rd  2.201e-24    
       rs  2.840e-20    
       id    6.4146a    
       rx  758.6860     
       fn   10.1663a    
    total   16.6093a    




 element     1:mtail2
       rd  7.458e-25    
       rs  9.611e-21    
       id    2.1710a    
       rx  441.3750     
       fn    3.4408a    
    total    5.6214a    




 **** total output noise voltage         = 487.5739f       sq v/hz
                                         = 698.2649n       v/rt hz
      transfer function value:
        v(voutp)/vvip                    =  14.1700       
      equivalent input noise at vvip                          
                                         =  49.2776n       /rt hz



 **** the results of the sqrt of integral (v**2 / freq)
      from fstart upto    1.0000x      hz. using more freq points
      results in more accurate total noise values.

 **** total output noise voltage   =    2.2467m       volts
 **** total equivalent input noise =   76.5711u      



1****** HSPICE -- F-2011.09 32-BIT (Sep  5 2011) winnt ******                   
 ******  
 .title ota_dc

  ******  noise analysis tnom=  25.000 temp=  27.000 *****

     frequency =  10.0000x      hz




 **** resistor squared noise voltages (sq v/hz)




 element     1:r1
       rs  503.9849a    
      1/f    0.         
    total  503.9849a    
       rx   16.5422k    



 **** mosfet squared noise voltages (sq v/hz)




 element     1:mbias
       rd  2.767e-25    
       rs  1.672e-20    
       id    3.6472a    
       rx  573.1290     
       fn    1.4133a    
    total    5.0772a    




 element     1:m1
       rd  6.622e-23    
       rs  1.101e-19    
       id   21.8352a    
       rx    1.2554k    
       fn    1.4316a    
    total   23.3769a    




 element     1:m2
       rd  5.942e-23    
       rs  1.092e-19    
       id   20.0107a    
       rx    1.2018k    
       fn    1.3120a    
    total   21.4320a    




 element     1:m3
       rd  4.771e-22    
       rs    3.5109a    
       id  801.4490a    
       rx    8.4734k    
       fn  169.3732a    
    total  974.3336a    




 element     1:m4
       rd  4.319e-22    
       rs    3.1935a    
       id  728.8315a    
       rx    8.0804k    
       fn  154.0267a    
    total  886.0521a    




 element     1:m5
       rd  3.066e-22    
       rs    3.1327a    
       id  817.3556a    
       rx    9.2675k    
       fn  2.180e-19    
    total  820.7065a    




 element     1:m6
       rd  3.366e-22    
       rs    3.2477a    
       id  890.1135a    
       rx    9.6712k    
       fn  2.374e-19    
    total  893.5989a    




 element     1:m7
       rd  2.808e-24    
       rs  5.456e-20    
       id   14.6324a    
       rx    1.2395k    
       fn  3.786e-21    
    total   14.6908a    




 element     1:m8
       rd  9.691e-24    
       rs  5.349e-21    
       id    5.6568a    
       rx  810.2136     
       fn  3.881e-19    
    total    6.0503a    




 element     1:m9
       rd  9.648e-25    
       rs  5.587e-21    
       id    1.6115a    
       rx  432.0300     
       fn  8.513e-20    
    total    1.7022a    




 element     1:m10
       rd  1.038e-24    
       rs  2.030e-20    
       id    5.8363a    
       rx  822.1938     
       fn  3.083e-19    
    total    6.1649a    




 element     1:m11
       rd  6.758e-24    
       rs  2.006e-20    
       id    1.5409a    
       rx  422.8679     
       fn  1.057e-19    
    total    1.6667a    




 element     1:mtail1
       rd  2.695e-24    
       rs  3.205e-20    
       id    7.2958a    
       rx  809.1228     
       fn    1.7582a    
    total    9.0861a    




 element     1:mtail2
       rd  7.797e-25    
       rs  8.707e-21    
       id    1.9967a    
       rx  423.2875     
       fn  4.812e-19    
    total    2.4866a    




 **** total output noise voltage         =   4.1704f       sq v/hz
                                         =  64.5787n       v/rt hz
      transfer function value:
        v(voutp)/vvip                    =   1.5647       
      equivalent input noise at vvip                          
                                         =  41.2715n       /rt hz



 **** the results of the sqrt of integral (v**2 / freq)
      from fstart upto   10.0000x      hz. using more freq points
      results in more accurate total noise values.

 **** total output noise voltage   =    2.3413m       volts
 **** total equivalent input noise =  149.6785u      



1****** HSPICE -- F-2011.09 32-BIT (Sep  5 2011) winnt ******                   
 ******  
 .title ota_dc

  ******  noise analysis tnom=  25.000 temp=  27.000 *****

     frequency = 100.0000x      hz




 **** resistor squared noise voltages (sq v/hz)




 element     1:r1
       rs    4.4689a    
      1/f    0.         
    total    4.4689a    
       rx    1.5577k    



 **** mosfet squared noise voltages (sq v/hz)




 element     1:mbias
       rd  1.904e-23    
       rs  3.075e-19    
       id   66.8763a    
       rx    2.4542k    
       fn    3.9403a    
    total   71.1242a    




 element     1:m1
       rd  1.514e-23    
       rs  8.144e-22    
       id  8.298e-19    
       rx  244.7242     
       fn  8.272e-21    
    total  8.389e-19    




 element     1:m2
       rd  3.721e-22    
       rs  1.217e-21    
       id    9.3696a    
       rx  822.3563     
       fn  9.341e-20    
    total    9.4646a    




 element     1:m3
       rd  1.407e-23    
       rs  1.203e-20    
       id    2.7681a    
       rx  497.9756     
       fn  8.895e-20    
    total    2.8691a    




 element     1:m4
       rd  8.357e-23    
       rs  2.053e-19    
       id   46.6806a    
       rx    2.0450k    
       fn    1.5000a    
    total   48.3860a    




 element     1:m5
       rd  1.955e-21    
       rs  1.098e-19    
       id   51.0658a    
       rx    2.3165k    
       fn  1.008e-21    
    total   51.1786a    




 element     1:m6
       rd  8.536e-23    
       rs  5.504e-22    
       id    2.0180a    
       rx  460.4903     
       fn  3.983e-23    
    total    2.0187a    




 element     1:m7
       rd  6.348e-23    
       rs  2.493e-20    
       id    3.5430a    
       rx  609.9077     
       fn  6.784e-23    
    total    3.5681a    




 element     1:m8
       rd  2.104e-24    
       rs  1.263e-21    
       id    1.0132a    
       rx  342.8987     
       fn  1.057e-20    
    total    1.0251a    




 element     1:m9
       rd  2.284e-23    
       rs  1.462e-21    
       id    1.0189a    
       rx  343.5264     
       fn  8.184e-21    
    total    1.0285a    




 element     1:m10
       rd  2.363e-23    
       rs  1.031e-21    
       id    1.4293a    
       rx  406.8727     
       fn  1.148e-20    
    total    1.4418a    




 element     1:m11
       rd  4.935e-23    
       rs  1.264e-21    
       id    3.9430a    
       rx  676.4353     
       fn  4.114e-20    
    total    3.9854a    




 element     1:mtail1
       rd  7.769e-24    
       rs  2.087e-21    
       id    1.3091a    
       rx  342.7400     
       fn  4.797e-20    
    total    1.3592a    




 element     1:mtail2
       rd  1.469e-23    
       rs  1.421e-20    
       id    5.0756a    
       rx  674.8740     
       fn  1.860e-19    
    total    5.2758a    




 **** total output noise voltage         = 208.0329a       sq v/hz
                                         =  14.4233n       v/rt hz
      transfer function value:
        v(voutp)/vvip                    = 132.9833m      
      equivalent input noise at vvip                          
                                         = 108.4598n       /rt hz



 **** the results of the sqrt of integral (v**2 / freq)
      from fstart upto  100.0000x      hz. using more freq points
      results in more accurate total noise values.

 **** total output noise voltage   =    2.3611m       volts
 **** total equivalent input noise =    1.0001m      



1****** HSPICE -- F-2011.09 32-BIT (Sep  5 2011) winnt ******                   
 ******  
 .title ota_dc

  ******  noise analysis tnom=  25.000 temp=  27.000 *****

     frequency =   1.0000g      hz




 **** resistor squared noise voltages (sq v/hz)




 element     1:r1
       rs  3.746e-21    
      1/f    0.         
    total  3.746e-21    
       rx   45.0997     



 **** mosfet squared noise voltages (sq v/hz)




 element     1:mbias
       rd  8.300e-26    
       rs  2.338e-23    
       id  3.908e-21    
       rx   18.7612     
       fn  3.501e-23    
    total  3.967e-21    




 element     1:m1
       rd  1.851e-27    
       rs  5.922e-25    
       id  1.924e-23    
       rx    1.1784     
       fn  2.917e-26    
    total  1.986e-23    




 element     1:m2
       rd  2.291e-22    
       rs  2.812e-24    
       id  4.471e-19    
       rx  179.6451     
       fn  6.778e-22    
    total  4.480e-19    




 element     1:m3
       rd  2.968e-26    
       rs  6.039e-24    
       id  4.527e-24    
       rx  636.8036m    
       fn  2.212e-26    
    total  1.062e-23    




 element     1:m4
       rd  1.804e-24    
       rs  8.451e-23    
       id  2.279e-20    
       rx   45.1813     
       fn  1.113e-22    
    total  2.298e-20    




 element     1:m5
       rd  1.183e-21    
       rs  7.574e-22    
       id  3.279e-19    
       rx  185.6317     
       fn  4.790e-25    
    total  3.299e-19    




 element     1:m6
       rd  5.853e-26    
       rs  6.951e-23    
       id  3.151e-24    
       rx  575.4096m    
       fn    0.         
    total  7.272e-23    




 element     1:m7
       rd  3.769e-25    
       rs  7.105e-23    
       id  2.104e-22    
       rx    4.7002     
       fn  2.982e-28    
    total  2.818e-22    




 element     1:m8
       rd  2.388e-28    
       rs  7.930e-26    
       id  2.740e-24    
       rx  563.8633m    
       fn  4.346e-27    
    total  2.824e-24    




 element     1:m9
       rd  1.328e-25    
       rs  1.519e-25    
       id  1.681e-22    
       rx    4.4124     
       fn  2.053e-25    
    total  1.686e-22    




 element     1:m10
       rd  1.464e-25    
       rs  4.436e-21    
       id  3.838e-20    
       rx   66.6755     
       fn  4.688e-23    
    total  4.286e-20    




 element     1:m11
       rd  2.994e-23    
       rs  4.665e-21    
       id  4.156e-20    
       rx   69.4475     
       fn  6.593e-23    
    total  4.632e-20    




 element     1:mtail1
       rd  2.359e-26    
       rs  4.976e-24    
       id  3.825e-24    
       rx  585.8634m    
       fn  2.131e-26    
    total  8.846e-24    




 element     1:mtail2
       rd  2.986e-24    
       rs  1.746e-22    
       id  5.335e-20    
       rx   69.1883     
       fn  2.972e-22    
    total  5.382e-20    




 **** total output noise voltage         = 9.522e-19       sq v/hz
                                         = 975.7996p       v/rt hz
      transfer function value:
        v(voutp)/vvip                    =   3.3817m      
      equivalent input noise at vvip                          
                                         = 288.5496n       /rt hz



 **** the results of the sqrt of integral (v**2 / freq)
      from fstart upto    1.0000g      hz. using more freq points
      results in more accurate total noise values.

 **** total output noise voltage   =    2.3637m       volts
 **** total equivalent input noise =    5.6675m      



1****** HSPICE -- F-2011.09 32-BIT (Sep  5 2011) winnt ******                   
 ******  
 .title ota_dc

  ******  noise analysis tnom=  25.000 temp=  27.000 *****

     frequency =  10.0000g      hz




 **** resistor squared noise voltages (sq v/hz)




 element     1:r1
       rs  4.086e-25    
      1/f    0.         
    total  4.086e-25    
       rx  470.9857m    



 **** mosfet squared noise voltages (sq v/hz)




 element     1:mbias
       rd  7.643e-28    
       rs  5.207e-26    
       id  3.609e-25    
       rx  180.2981m    
       fn  4.917e-28    
    total  4.143e-25    




 element     1:m1
       rd  1.946e-28    
       rs  1.780e-28    
       id  4.011e-27    
       rx   17.0143m    
       fn    0.         
    total  4.384e-27    




 element     1:m2
       rd  2.283e-22    
       rs  1.848e-26    
       id  4.799e-21    
       rx   18.6119     
       fn  1.106e-24    
    total  5.029e-21    




 element     1:m3
       rd  2.357e-28    
       rs  5.099e-26    
       id    0.         
       rx    1.7245m    
       fn    0.         
    total  5.126e-26    




 element     1:m4
       rd  1.879e-26    
       rs  4.159e-26    
       id  2.468e-24    
       rx  470.1835m    
       fn  1.833e-27    
    total  2.530e-24    




 element     1:m5
       rd  1.182e-21    
       rs  1.566e-23    
       id  3.278e-21    
       rx   18.5604     
       fn  3.544e-28    
    total  4.476e-21    




 element     1:m6
       rd  1.254e-26    
       rs  1.427e-23    
       id  1.244e-26    
       rx   36.1531m    
       fn    0.         
    total  1.430e-23    




 element     1:m7
       rd  8.001e-26    
       rs  1.423e-23    
       id  4.288e-25    
       rx  212.1858m    
       fn    0.         
    total  1.474e-23    




 element     1:m8
       rd    0.         
       rs  3.586e-27    
       id  4.159e-28    
       rx    6.9472m    
       fn    0.         
    total  4.028e-27    




 element     1:m9
       rd  2.819e-26    
       rs  4.992e-27    
       id  3.807e-25    
       rx  209.9854m    
       fn    0.         
    total  4.139e-25    




 element     1:m10
       rd  2.767e-26    
       rs  4.443e-21    
       id  3.946e-22    
       rx    6.7608     
       fn  7.329e-26    
    total  4.838e-21    




 element     1:m11
       rd  2.990e-23    
       rs  4.678e-21    
       id  4.359e-22    
       rx    7.1123     
       fn  1.051e-25    
    total  5.144e-21    




 element     1:mtail1
       rd  2.005e-28    
       rs  5.028e-26    
       id  8.884e-28    
       rx    8.9287m    
       fn    0.         
    total  5.137e-26    




 element     1:mtail2
       rd  3.151e-24    
       rs  1.854e-24    
       id  5.449e-22    
       rx    6.9928     
       fn  4.617e-25    
    total  5.504e-22    




 **** total output noise voltage         = 2.007e-20       sq v/hz
                                         = 141.6675p       v/rt hz
      transfer function value:
        v(voutp)/vvip                    =  72.4337u      
      equivalent input noise at vvip                          
                                         =   1.9558u       /rt hz



 **** the results of the sqrt of integral (v**2 / freq)
      from fstart upto   10.0000g      hz. using more freq points
      results in more accurate total noise values.

 **** total output noise voltage   =    2.3639m       volts
 **** total equivalent input noise =  141.8754m      




          ***** job concluded
1****** HSPICE -- F-2011.09 32-BIT (Sep  5 2011) winnt ******                   
 ******  
 .title ota_dc

  ******  job statistics summary tnom=  25.000 temp=  27.000 *****

  ******  HSPICE Threads Information  ******

  Command Line Threads Count :     1
  Available CPU Count        :    16
  Actual Threads Count       :     1


  ******  Circuit Statistics  ******
  # nodes       =      41 # elements   =      20
  # resistors   =       1 # capacitors =       0 # inductors   =       0
  # mutual_inds =       0 # vccs       =       0 # vcvs        =       0
  # cccs        =       0 # ccvs       =       0 # volt_srcs   =       4
  # curr_srcs   =       1 # diodes     =       0 # bjts        =       0
  # jfets       =       0 # mosfets    =      14 # U elements  =       0
  # T elements  =       0 # W elements =       0 # B elements  =       0
  # S elements  =       0 # P elements =       0 # va device   =       0
  # vector_srcs =       0


  ******  Runtime Statistics (seconds)  ******

  analysis           time    # points   tot. iter  conv.iter
  op point           0.01           1         229
  ac analysis        0.04          91          91
  readin             0.05
  errchk             0.01
  setup              0.01
  output             0.00


           peak memory used         44.34 megabytes
           total cpu time            0.13 seconds
           total elapsed time        0.60 seconds
           job started at     09:02:12 01/08/2023
           job ended   at     09:02:12 01/08/2023


  lic: Release hspice token(s) 
